version 2
run Net1-0-20190225-19:54:49-2394
attr configname Net1
attr datetime 20190225-19:54:49
attr experiment Net1
attr inifile omnetpp.ini
attr iterationvars ""
attr iterationvarsf ""
attr measurement ""
attr network Net
attr processid 2394
attr repetition 0
attr replication #0
attr resultdir results
attr runnumber 0
attr seedset 0
param **.gen.numPrio 5
param **.queue.numPrio 5
param **.queue.preemptive false
param **.gen.interArrivalTimes "\"0.20 0.25 0.30 0.35 0.40\""
param **.queue.serviceTimes "\"0.20 0.25 0.30 0.35 0.40\""

vector 0 Net.queue qlen:vector ETV
attr interpolationmode sample-hold
attr title "queue length, vector"
0	0	0	0
0	9	0.754546604288	1
0	10	0.876412094037	2
0	11	0.920928190873	1
0	15	1.248718869036	0
0	21	1.498066348187	1
0	23	1.593128036831	2
0	26	1.815200296821	3
0	28	1.903108234629	4
0	29	2.088494354914	5
0	31	2.119490657184	6
0	33	2.403504589313	7
0	34	2.663795820508	8
0	36	2.753681438191	7
0	38	2.930087547797	6
0	40	2.994148718458	5
0	42	3.002433345006	4
0	44	3.031152133984	5
0	45	3.208236097537	4
0	47	3.595762861621	3
0	49	3.744026704828	2
0	52	4.06183526253	3
0	54	4.300265145	2
0	57	4.568138711528	3
0	58	4.774455088303	2
0	60	4.792554184243	3
0	63	5.132022909844	4
0	64	5.197590108519	5
0	65	5.404753741596	4
0	67	5.627994528674	3
0	70	5.76066348633	2
0	73	5.959782270613	3
0	74	6.077226655083	4
0	75	6.104966991865	3
0	77	6.229137601507	2
0	79	6.508790900248	1
0	82	6.871789181563	0
0	86	7.061388257726	1
0	87	7.275980202518	2
0	88	7.31445535128	3
0	89	7.746081241127	2
0	91	7.777722381467	1
0	94	8.016241117916	0
0	96	8.107704591009	1
0	97	8.246982042973	0
0	127	10.647494525538	1
0	128	10.793741185812	0
0	130	10.822895922754	1
0	132	10.880719626163	2
0	133	10.902068326067	3
0	134	10.998407142717	2
0	136	11.054638268094	1
0	138	11.125561358491	0
0	140	11.159168639027	1
0	142	11.554573374968	2
0	144	11.860020973228	3
0	147	12.315245502878	2
0	149	12.468992226551	3
0	150	12.480093645189	4
0	151	13.067287695467	3
0	154	13.380369234362	2
0	156	13.386970776324	1
0	158	13.448825688586	0
0	160	13.466714783785	1
0	162	14.002612151869	0
0	164	14.053798890107	1
0	165	14.155243310578	0
0	178	14.851258150085	1
0	180	14.944211797371	0
0	182	14.960389084455	1
0	183	15.020555198594	0
0	186	15.070964118414	1
0	187	15.141701273741	0
0	189	15.176386982	1
0	192	15.369576930445	2
0	193	15.498995256876	3
0	195	15.542576742931	4
0	196	15.546154805081	3
0	198	15.799836659258	4
0	199	15.876471374764	3
0	201	16.099978096469	2
0	204	16.244543297647	1
0	208	16.426964717519	2
0	210	16.602374383396	3
0	212	16.721618983101	4
0	214	16.886097006333	5
0	216	17.006388764741	6
0	217	17.059851235535	7
0	218	17.241758983118	8
0	220	17.507344180653	7
0	222	17.569323853725	6
0	224	17.774196966031	7
0	225	17.817582397226	6
0	227	17.873365160982	5
0	232	18.324288540579	4
0	237	18.393715794109	3
0	239	18.456217909445	4
0	241	18.499282501075	3
0	243	18.545916564701	4
0	244	18.546398690808	5
0	245	18.626193057621	6
0	246	18.637455413959	7
0	247	18.683437659799	8
0	248	18.709371887506	7
0	250	18.775699391506	8
0	251	18.958770641835	7
0	254	19.266679487212	8
0	255	19.801180559502	7
0	257	19.877985862193	6
0	259	19.95773352193	5
0	262	20.350663690143	6
0	263	20.437484945405	5
0	266	20.856629664969	6
0	270	21.33452306854	7
0	271	21.422285868363	8
0	273	21.505741462378	9
0	275	21.57692102665	8
0	277	21.662905090838	7
0	279	21.735516852135	8
0	280	21.771472404481	7
0	282	21.773620281956	6
0	284	21.806253492803	7
0	286	22.29907590038	8
0	287	22.38814389163	7
0	292	22.897113229076	8
0	293	23.044949344721	9
0	294	23.134930075177	10
0	296	23.493424950631	9
0	299	23.516340578915	10
0	301	23.801865160723	11
0	303	24.00919547671	10
0	305	24.021373653884	11
0	306	24.196921928277	10
0	308	24.289354535143	11
0	310	24.736105871658	10
0	312	24.983908733948	9
0	314	25.019596989694	10
0	315	25.207101750906	9
0	320	25.546446437575	10
0	321	25.578189762452	9
0	326	25.751865885395	10
0	327	25.780666441611	11
0	328	25.924442817641	12
0	329	25.963619467229	11
0	331	25.980546027404	12
0	332	26.004905411338	13
0	333	26.163753961169	12
0	335	26.199941488217	11
0	337	26.477856685312	10
0	344	26.78116637081	11
0	345	26.794814243127	10
0	347	26.860325380364	11
0	348	26.863717622053	12
0	349	26.870422315756	13
0	350	26.95790698254	14
0	351	27.152761543244	13
0	353	27.211554706692	12
0	355	27.260288757033	11
0	360	27.569929329306	12
0	362	27.605499080418	13
0	363	27.796164370748	12
0	365	27.833711447081	11
0	367	27.861879135804	12
0	368	27.879056984527	13
0	370	28.012082416664	12
0	372	28.069943630701	11
0	375	28.263618631483	12
0	376	28.264997540673	11
0	378	28.473303716844	12
0	381	28.927308769948	13
0	382	28.968663487307	12
0	384	29.209126315139	11
0	386	29.226981124006	12
0	387	29.583660968798	11
0	389	29.667704115901	10
0	391	29.951308038933	9
0	394	30.296686462939	10
0	395	30.456059478878	9
0	398	30.913770098627	10
0	401	31.228882213353	11
0	402	31.490602135261	12
0	403	31.539617722042	11
0	407	31.69685608415	10
0	411	31.86461727806	11
0	412	31.961617209927	12
0	413	32.103561420833	13
0	414	32.139150239172	12
0	416	32.154060412655	13
0	418	32.561094538517	14
0	419	32.791354865404	13
0	422	33.464375284678	14
0	423	33.670533972499	13
0	425	33.77538421074	12
0	428	33.837305289514	11
0	430	33.85547545004	10
0	433	34.108981422587	11
0	434	34.183155791088	10
0	436	34.319351406155	11
0	437	34.788324638875	10
0	441	35.135160309829	11
0	442	35.142415791126	10
0	445	35.179580904213	9
0	447	35.282349672512	10
0	448	35.398226491902	9
0	450	35.405248487462	8
0	452	35.4723473572	9
0	454	35.734276194747	8
0	458	35.915298855122	7
0	460	35.918662594082	6
0	462	35.975249190861	7
0	463	36.147709712275	8
0	464	36.212071570292	9
0	466	36.524215624747	10
0	467	37.144504457356	9
0	469	37.389063908777	8
0	473	37.805698370363	9
0	474	37.848739798189	10
0	475	38.027417024686	9
0	477	38.041734629078	8
0	480	38.380951662805	9
0	482	38.52816114047	8
0	484	38.77125765189	9
0	485	39.009252637642	8
0	487	39.201515397293	7
0	491	39.589997926102	6
0	493	39.698404073849	7
0	494	39.77385569817	6
0	496	39.78110496	7
0	498	39.945069902184	6
0	500	40.230189972631	7
0	501	40.314302841186	6
0	503	40.473067684497	5
0	508	40.898669756369	6
0	511	41.064074949155	5
0	513	41.081867227169	6
0	514	41.150516610023	7
0	515	41.263028611297	8
0	516	41.316776930247	9
0	517	42.101511025722	8
0	522	43.068249784261	9
0	524	43.203147993439	10
0	525	43.338120226341	11
0	526	43.421083550333	12
0	527	43.442899304582	11
0	529	43.542356032005	10
0	531	43.688167170585	9
0	534	43.8779142735	8
0	536	44.043606626749	7
0	538	44.168611469963	8
0	540	44.482389596625	7
0	542	44.536395903889	6
0	544	44.54074786595	5
0	546	44.616719542439	6
0	548	45.409172922789	7
0	552	45.785480372567	8
0	553	45.893419318103	9
0	554	45.919546908072	10
0	558	46.224354210542	11
0	559	46.225389666602	10
0	561	46.23273251957	11
0	562	46.259837084939	10
0	565	46.45566986924	11
0	566	46.482042761479	10
0	568	46.622942160336	11
0	570	47.024562977605	12
0	571	47.029935874729	11
0	574	47.373686610949	10
0	578	47.519042037565	11
0	579	47.699250459217	12
0	581	47.772807318126	13
0	585	48.006778640687	14
0	586	48.095327312768	15
0	588	48.27737259588	16
0	589	48.278568544817	17
0	590	48.4923175039	18
0	592	48.783842662345	17
0	594	48.832497671762	16
0	596	49.004591935037	17
0	598	49.473122279908	18
0	599	49.478228437092	17
0	601	49.541980000289	16
0	605	49.860743405258	15
0	607	49.967714092878	16
0	609	50.127883400919	17
0	610	50.203084466176	16
0	612	50.356540393229	15
0	614	50.364899646863	16
0	617	51.225194947319	15
0	619	51.354079660843	16
0	620	51.400145948726	17
0	622	51.462854086802	16
0	625	51.712237602912	17
0	628	51.860774854155	18
0	630	51.899667472535	17
0	632	52.017440511961	18
0	633	52.067144540108	17
0	635	52.11664303123	18
0	636	52.17363103896	19
0	637	52.289509363	18
0	639	52.298728486194	17
0	641	52.907041926426	16
0	644	53.244457113355	17
0	647	53.564407967564	18
0	648	53.575494924321	19
0	651	53.811323684961	18
0	653	53.894495960348	17
0	655	54.012980491137	18
0	656	54.097427342665	19
0	659	54.64878350778	20
0	660	54.730904185028	19
0	662	54.741624969569	20
0	664	54.833650439578	19
0	666	55.057228750688	20
0	669	55.256190704072	19
0	671	55.471623678714	20
0	672	55.510812097447	21
0	673	55.8256061027	20
0	679	56.218766109342	19
0	682	56.271656119442	20
0	683	56.2928671559	21
0	684	56.375044645303	22
0	685	56.509172006039	21
0	687	56.51829740478	22
0	688	56.56318354065	23
0	690	56.750277942286	22
0	692	56.77937996576	21
0	694	56.797798541247	20
0	696	56.871644619026	19
0	698	56.888546576658	20
0	699	57.176838121413	19
0	701	57.275245408039	18
0	703	57.296942304936	17
0	706	57.608838018166	18
0	711	57.916311872291	19
0	712	57.944173790431	20
0	714	58.008718995686	21
0	715	58.174363618665	22
0	716	58.255325891933	23
0	717	58.603688049344	22
0	719	58.679920570284	21
0	721	58.735829358126	20
0	723	58.891680430462	19
0	725	59.297147409997	18
0	728	59.839826479243	19
0	730	60.027818998275	18
0	733	60.309360006497	19
0	734	60.342464723913	18
0	736	60.482471528182	19
0	738	60.646205795238	18
0	740	60.787567047011	19
0	741	60.895502409277	18
0	743	60.899299779623	17
0	746	61.135348022636	16
0	750	61.398606791354	17
0	752	61.535549578346	16
0	754	61.549754500123	17
0	756	61.679319602824	18
0	757	61.799321160698	19
0	760	61.856283031238	20
0	761	62.110562076447	21
0	762	62.12907721078	22
0	764	62.220925672086	21
0	768	62.45063732668	22
0	769	62.559223880272	23
0	770	62.598090301964	22
0	772	62.623827561957	21
0	774	62.641122065396	22
0	776	62.829693312874	21
0	778	62.994325465284	22
0	779	63.218569583954	21
0	781	63.290187432021	20
0	786	63.826695071429	19
0	788	63.863025590304	20
0	789	64.011726350104	21
0	791	64.060324774644	22
0	793	64.215071259213	21
0	795	64.257344794676	20
0	797	64.336162453398	21
0	798	64.419129193951	20
0	800	64.476691505562	21
0	801	64.649011254847	20
0	803	64.654724264966	19
0	807	64.863373358688	18
0	809	65.053935957927	19
0	810	65.162262217415	20
0	811	65.220453587661	19
0	816	65.75742611961	18
0	818	65.774553935642	19
0	819	65.782329904216	20
0	820	66.002432484958	21
0	822	66.416339616196	20
0	824	66.630570422422	19
0	826	66.632112428759	20
0	828	66.764495922083	19
0	832	67.049422845656	20
0	835	67.163767995881	21
0	837	67.194056465997	22
0	839	67.359216254216	23
0	840	67.388964594832	24
0	841	67.492633546427	25
0	842	67.58525421061	26
0	843	67.602329963859	25
0	845	67.650112681008	24
0	847	67.726583883894	23
0	850	68.059543231292	24
0	851	68.167265192331	23
0	853	68.237602243448	22
0	855	68.5457969676	21
0	857	68.628837037645	20
0	860	68.72545713219	19
0	862	68.97463189433	20
0	863	69.111952481582	19
0	865	69.316820074347	18
0	869	69.596185972276	17
0	871	69.611466487336	16
0	875	69.669826807494	17
0	876	69.700347982424	18
0	878	69.913561705446	19
0	879	69.964037685437	20
0	880	70.108491118557	21
0	883	70.372441918389	20
0	885	70.537234787106	19
0	887	70.608529090919	20
0	888	70.630954273916	19
0	890	70.651593622638	20
0	891	70.821220673406	19
0	893	71.039064373703	18
0	896	71.326980954004	17
0	899	71.544464486131	16
0	901	71.568508354834	17
0	903	71.775020965587	18
0	905	71.81899621259	17
0	908	71.970884129581	18
0	909	72.014431317415	17
0	911	72.109369124263	18
0	912	72.229425609501	19
0	915	72.473899437071	18
0	917	72.583334247134	19
0	918	72.613744738019	20
0	920	72.745323411963	19
0	922	72.885932865184	18
0	924	72.979875407826	19
0	926	73.187002725991	18
0	928	73.239043393971	17
0	931	73.276272221049	16
0	933	73.424591751336	17
0	934	73.56183182811	18
0	936	73.985210634751	17
0	938	74.186915529464	18
0	939	74.351360886051	17
0	942	75.242646172007	16
0	944	75.466009134536	15
0	946	75.477076600587	16
0	947	75.553155719199	15
0	949	75.571782762541	14
0	951	75.672644323173	13
0	953	75.726599472156	12
0	956	75.878016094924	11
0	958	75.896672543147	10
0	960	76.043872709072	11
0	961	76.071024295754	10
0	963	76.143296955676	9
0	965	76.249997253405	8
0	968	76.78802939037	9
0	969	76.873778356015	8
0	971	76.931146676655	7
0	975	77.442424045652	6
0	978	77.510651621665	7
0	980	77.700984826815	8
0	981	77.798293199734	9
0	983	77.902088351422	10
0	984	77.962517760057	9
0	987	77.998251798146	8
0	989	78.07304030551	7
0	991	78.136621242613	8
0	992	78.1929216262	7
0	994	78.265336601649	6
0	996	78.268677990755	7
0	998	78.587644106659	8
0	1000	79.092612983149	7
0	1003	79.129236092358	6
0	1006	79.237983874273	5
0	1009	79.31022369055	6
0	1010	79.411332497365	7
0	1011	79.457224099614	8
0	1012	79.56968129288	9
0	1013	79.586623941623	8
0	1015	79.803680710262	7
0	1017	79.876114115693	6
0	1021	80.177894212526	5
0	1023	80.189195899095	4
0	1025	80.194714667157	5
0	1027	80.379861546495	6
0	1028	80.524089041933	5
0	1030	80.535439264379	6
0	1031	80.643220994929	5
0	1033	80.927770924134	4
0	1035	80.951389165503	3
0	1037	81.260340726144	2
0	1039	81.393047254246	1
0	1043	81.637959676999	0
0	1046	81.811095934955	1
0	1048	81.875431395529	0
0	1050	81.881997940022	1
0	1051	81.97442631111	2
0	1053	82.159144130951	3
0	1054	82.166125058779	2
0	1056	82.225295929616	1
0	1058	82.337139656546	2
0	1059	82.778603835919	1
0	1063	83.037321112404	0
0	1068	83.258295422257	1
0	1070	83.286974889486	2
0	1071	83.338407872383	3
0	1072	83.380990616294	4
0	1073	83.417211078946	5
0	1074	83.57341960222	6
0	1075	83.812702900778	5
0	1078	84.005705085853	4
0	1081	84.155528984311	5
0	1082	84.443748299432	6
0	1083	84.471035757483	5
0	1085	84.73932074083	4
0	1088	85.095996538203	5
0	1091	85.288666729159	4
0	1093	85.429362734273	5
0	1094	85.434635500491	4
0	1097	85.470432726997	3
0	1099	85.487045656589	2
0	1101	85.489600289715	3
0	1107	85.750877427424	4
0	1108	85.831578212028	5
0	1109	85.872528775664	4
0	1111	85.904157053195	5
0	1112	85.904607472261	6
0	1113	85.935913677459	7
0	1114	86.015573811835	8
0	1116	86.102634074951	7
0	1118	86.106182404656	6
0	1120	86.254320198949	5
0	1122	86.361480611696	6
0	1124	86.547195823771	5
0	1126	86.723456564743	4
0	1128	86.82511224201	5
0	1129	86.94169270627	4
0	1132	87.414577213772	5
0	1133	87.603437062073	4
0	1135	87.659229220961	3
0	1138	87.791479140731	2
0	1141	88.087199480587	3
0	1143	88.381093667636	2
0	1145	88.381662885511	3
0	1147	88.470029549097	4
0	1149	88.698870091782	5
0	1150	88.836263488175	6
0	1152	88.968124513476	5
0	1154	89.069998203187	4
0	1156	89.122034482828	3
0	1159	89.235895842104	4
0	1160	89.451914145309	5
0	1161	89.641967001038	4
0	1163	89.758469425107	3
0	1170	90.124588830274	4
0	1171	90.19268095666	5
0	1173	90.286020065233	6
0	1174	90.305987406787	5
0	1176	90.325298186917	6
0	1177	90.401121519299	7
0	1178	90.411498895625	6
0	1180	90.475860273206	5
0	1182	90.54143908983	6
0	1183	90.55554457284	5
0	1185	90.611785052956	4
0	1188	91.053564807539	3
0	1191	91.103663847043	4
0	1192	91.171023277984	3
0	1195	91.34475677864	2
0	1197	91.370769332449	3
0	1199	91.557232776395	4
0	1201	91.715697704725	5
0	1204	92.010288688207	6
0	1206	92.101190056708	7
0	1207	92.135470091174	8
0	1208	92.270154721369	7
0	1210	92.325590229174	6
0	1213	92.360851168991	7
0	1215	92.608056547246	6
0	1217	92.65226538449	7
0	1218	92.676437710489	8
0	1220	93.41649373093	7
0	1225	93.713608628736	8
0	1226	93.731720265208	9
0	1227	93.764544800322	8
0	1229	93.811015226115	9
0	1230	93.850757914855	8
0	1232	93.974985619073	9
0	1233	94.135790846288	8
0	1239	94.479718020486	9
0	1240	94.482991354261	10
0	1241	94.589426132527	11
0	1243	94.744658805408	12
0	1244	94.91436596591	13
0	1249	95.575510332486	14
0	1250	95.585913635163	15
0	1251	95.599169592797	16
0	1252	95.626001737177	15
0	1254	95.653364573561	16
0	1255	95.735262884255	15
0	1257	95.762310264385	14
0	1260	95.992986755254	13
0	1262	96.044644430817	12
0	1264	96.175825376208	11
0	1266	96.190798834278	10
0	1268	96.224509987876	11
0	1270	96.503895743344	10
0	1274	96.763774961492	11
0	1275	96.977446865165	12
0	1276	96.999020022773	11
0	1279	97.010525960938	12
0	1281	97.301023947657	11
0	1283	97.302195499585	12
0	1284	97.379764750391	13
0	1288	97.629972506855	12
0	1290	97.739266666713	13
0	1291	97.799913350375	14
0	1292	97.871758162184	13
0	1294	97.883897513772	14
0	1296	98.227138031816	13
0	1298	98.325458004511	14
0	1299	98.414781607311	13
0	1304	98.685455757369	12
0	1306	98.845420980327	13
0	1307	98.885086849579	14
0	1308	98.955043820749	15
0	1309	99.038469467104	14
0	1311	99.11361568764	13
0	1314	99.31569025599	12
0	1318	99.546165626736	13
0	1319	99.705150709823	14
0	1320	99.845429423303	15
0	1322	100.282203007605	16
0	1324	100.890985462707	15
0	1326	101.083660836447	16
0	1327	101.090077405351	15
0	1329	101.262465820899	14
0	1333	101.600971171011	13
0	1335	101.641561871229	12
0	1337	101.708604243051	13
0	1338	101.798290932159	12
0	1340	101.802986338278	13
0	1342	101.991959818002	12
0	1344	102.10388090376	11
0	1346	102.269298111958	12
0	1347	102.780430467595	11
0	1349	102.881537252783	10
0	1352	103.078544262651	9
0	1354	103.250201482374	10
0	1355	103.353248497825	9
0	1357	103.567933789191	8
0	1361	104.079327337584	7
0	1363	104.14059028069	8
0	1365	104.202086016347	7
0	1367	104.351023149238	8
0	1369	104.389426167772	7
0	1371	104.449567768278	8
0	1372	104.528709770103	7
0	1374	104.567916754975	6
0	1376	104.687580692712	7
0	1377	104.702337047845	6
0	1381	104.975441218976	5
0	1383	105.059503257188	6
0	1385	105.150208949971	7
0	1387	105.41224668431	8
0	1389	105.460349524249	7
0	1391	105.603329428608	6
0	1393	105.656248570777	7
0	1394	105.717332238007	8
0	1396	106.077683239087	7
0	1398	106.174381430662	8
0	1399	106.211058251011	7
0	1401	106.275909081966	6
0	1405	106.40271455809	5
0	1409	106.66616634588	6
0	1410	106.672771280302	7
0	1411	106.769163277473	8
0	1413	106.911128560151	7
0	1415	106.940192770567	8
0	1416	107.042859236194	7
0	1418	107.137134530882	8
0	1420	107.212235312034	7
0	1422	107.390765865707	6
0	1424	107.489069416951	7
0	1428	107.828366276357	8
0	1429	107.872727284298	9
0	1430	107.928120725606	10
0	1431	108.051747345949	9
0	1433	108.260059883234	8
0	1437	108.666875337979	9
0	1438	108.711540545901	10
0	1439	109.241671549923	9
0	1441	109.586730055479	8
0	1443	109.603772836638	7
0	1447	110.095938085967	8
0	1450	110.350095473836	9
0	1452	110.482988265536	8
0	1454	110.555208876151	9
0	1456	110.598974818373	10
0	1458	110.700155121207	11
0	1459	110.788081779528	10
0	1461	110.877562129591	11
0	1462	110.891786189096	10
0	1464	110.9570824228	11
0	1468	111.326621065483	12
0	1470	111.414114894935	13
0	1471	111.54797716169	12
0	1473	111.589554520429	13
0	1475	111.617996970832	12
0	1477	111.634599343337	13
0	1478	111.715707324186	12
0	1480	111.888272272666	11
0	1482	111.901120424134	12
0	1485	112.823865953239	13
0	1487	112.954104898307	14
0	1488	113.225097824849	15
0	1491	113.611732869898	14
0	1493	113.635780148907	13
0	1495	113.825865713791	14
0	1496	113.905182822127	15
0	1497	113.968326555462	14
0	1499	114.340039778817	13
0	1501	114.43142177363	12
0	1503	114.522411506452	11
0	1508	115.322923744577	12
0	1509	115.326108988696	13
0	1510	115.488032109861	12
0	1513	115.516956595668	13
0	1516	115.602063611389	12
0	1519	115.798319969888	13
0	1520	115.864507351682	14
0	1521	115.866042514103	15
0	1522	115.876642200546	14
0	1524	116.02929826024	13
0	1526	116.086776161221	14
0	1527	116.187320341398	13
0	1530	116.299173255407	12
0	1532	116.442578277186	11
0	1534	116.470584042845	10
0	1536	116.512368224905	9
0	1538	116.514708855689	8
0	1540	116.537436607174	9
0	1541	116.549552115445	8
0	1545	117.102215280353	9
0	1546	117.224424570918	10
0	1547	117.234038213406	9
0	1549	117.364348101084	8
0	1551	117.873200614876	7
0	1553	118.072014874146	6
0	1557	118.361159954323	5
0	1561	118.552865672616	6
0	1562	118.599650676704	7
0	1563	118.753637159382	8
0	1564	118.768648594057	9
0	1565	119.117139020738	8
0	1568	119.249343869305	7
0	1570	119.255995658386	6
0	1575	119.481784192209	7
0	1577	119.621675572261	8
0	1578	119.623537513566	9
0	1579	119.648355545749	10
0	1580	119.822321652885	11
0	1581	120.158648539999	10
0	1584	120.476960715154	9
0	1586	120.518569063614	8
0	1588	120.576791943014	9
0	1590	120.725732842969	8
0	1592	120.848162874442	7
0	1595	120.919110852382	8
0	1596	120.993242833372	7
0	1599	121.202404226763	8
0	1600	121.260566077684	7
0	1602	121.420504709286	8
0	1604	122.004626803283	9
0	1605	122.034201682116	8
0	1609	122.418114948744	9
0	1610	122.470779024344	10
0	1611	122.767798771817	9
0	1613	123.216949840239	8
0	1615	123.449176651836	7
0	1617	123.50231051161	6
0	1620	123.845958579916	7
0	1623	124.274405269743	8
0	1624	124.275259216127	9
0	1626	124.729127778647	10
0	1627	124.946327028758	9
0	1630	125.408066326641	10
0	1632	126.309429683569	9
0	1634	126.319363534285	10
0	1638	126.765072061296	11
0	1639	126.820232638212	12
0	1640	126.846805397231	11
0	1642	126.887081023884	12
0	1643	126.947152701799	11
0	1645	127.084583222063	10
0	1649	127.688839719751	9
0	1651	127.714611045804	8
0	1653	127.83821032539	9
0	1654	127.895250597847	10
0	1655	128.079176334157	9
0	1657	128.29020174275	8
0	1663	129.094476345066	9
0	1664	129.158935824364	10
0	1665	129.182501269336	11
0	1666	129.210147612934	12
0	1667	129.395750745881	11
0	1670	129.792932426225	10
0	1672	129.961573933613	9
0	1674	129.993725073857	10
0	1675	130.386751901698	9
0	1679	130.602027469656	8
0	1682	130.842473233455	9
0	1683	130.884968629539	10
0	1685	130.995476314054	11
0	1687	131.294044297935	12
0	1690	131.363767628516	13
0	1691	131.639281758867	14
0	1692	131.654298007497	15
0	1694	132.013768768302	16
0	1695	132.140181484552	15
0	1698	132.709007734009	14
0	1701	132.843401357411	13
0	1705	133.001992380782	14
0	1706	133.028006490557	13
0	1708	133.129096041969	14
0	1710	133.224410038086	15
0	1711	133.294451077941	16
0	1712	133.294808852068	15
0	1716	133.430697182685	14
0	1718	133.440679940815	15
0	1719	133.4755889414	14
0	1721	133.515843914057	13
0	1723	133.644458329068	14
0	1724	133.685355096384	15
0	1725	133.928994411015	14
0	1728	133.957429703518	13
0	1731	134.250532200782	14
0	1732	134.37691957817	13
0	1735	134.428984242216	14
0	1737	134.665232564364	13
0	1739	134.708464686351	14
0	1740	134.814325278326	15
0	1742	135.100117058603	14
0	1744	135.143239940308	15
0	1745	135.157944850579	14
0	1747	135.210355391867	13
0	1749	135.366978755821	12
0	1753	135.632859718133	11
0	1755	135.682978100257	12
0	1756	135.732823773561	11
0	1758	135.784816434124	12
0	1762	136.212709066875	13
0	1764	136.376150646976	14
0	1765	136.379600727164	13
0	1768	136.438645983968	14
0	1770	136.544172194555	15
0	1771	136.587252981396	14
0	1774	136.605657822232	13
0	1778	136.69939114564	14
0	1779	136.760670322336	15
0	1780	136.900264399515	16
0	1781	136.935974073886	17
0	1782	136.953574922487	18
0	1785	137.518859033725	19
0	1786	137.621519856729	20
0	1787	137.808257316336	19
0	1789	137.83128653076	18
0	1791	137.920210948495	17
0	1793	137.937524537437	16
0	1796	138.088133928159	15
0	1799	138.296072134438	16
0	1800	138.553899924236	17
0	1801	138.826055050296	16
0	1803	138.883739983803	15
0	1808	139.186490682383	14
0	1810	139.219653929717	15
0	1811	139.241265987864	16
0	1813	139.394472692306	17
0	1815	139.622341421297	18
0	1816	139.756759035202	19
0	1818	140.371280563984	18
0	1821	140.439842893431	17
0	1824	140.579813261624	18
0	1826	140.692327517117	17
0	1828	140.701406352744	18
0	1829	140.750901462015	17
0	1832	140.842585904205	18
0	1833	140.990731920397	19
0	1834	141.127571309245	20
0	1835	141.16238693423	19
0	1837	141.205439856136	18
0	1839	141.340342943534	17
0	1841	141.43009820411	16
0	1843	141.746726778168	15
0	1847	142.344020343447	16
0	1848	142.527178859358	17
0	1851	142.857854677041	18
0	1852	142.959513247262	19
0	1853	144.115748226354	18
0	1856	144.778186975952	17
0	1859	145.026172229944	18
0	1860	145.182126804788	19
0	1862	145.695274666494	18
0	1864	145.852750231501	17
0	1866	145.950967338722	18
0	1867	146.128292546655	17
0	1869	146.303136831713	16
0	1874	146.782604124629	15
0	1877	146.87985845488	16
0	1878	146.892850341014	17
0	1880	146.985428074644	18
0	1881	146.996133703619	17
0	1883	147.126778198236	18
0	1884	147.229876140844	19
0	1885	147.292933804747	18
0	1888	147.346451228077	17
0	1891	147.635285842732	18
0	1892	147.795682638262	19
0	1893	147.994247283636	18
0	1895	148.07367789098	17
0	1898	148.381075337161	16
0	1900	148.393307319437	15
0	1902	148.41339591908	14
0	1905	148.6254120278	15
0	1906	148.801936061425	14
0	1908	148.856759636376	15
0	1911	149.284431414049	16
0	1913	149.483445526738	17
0	1916	149.607259274399	18
0	1918	149.834698590659	19
0	1919	149.84046117086	20
0	1920	149.888196892787	19
0	1922	149.953780159238	20
0	1923	150.161642826533	19
0	1925	150.272693875823	18
0	1928	150.415020872949	17
0	1930	150.473943584849	16
0	1933	150.63324965634	17
0	1935	150.861580607565	16
0	1937	150.880377515521	17
0	1938	151.130135587903	16
0	1940	151.132386901122	17
0	1943	151.343041866899	16
0	1945	151.447105283412	17
0	1947	151.497534511273	16
0	1949	151.598172628346	17
0	1952	151.786694614253	18
0	1953	151.928878294945	19
0	1954	151.98239545245	20
0	1959	152.693469399815	21
0	1961	152.80850453644	22
0	1963	152.856832680095	21
0	1965	152.868552277167	22
0	1966	152.965924857984	21
0	1968	152.98810841224	22
0	1969	153.033839519891	23
0	1970	153.132980613503	24
0	1971	153.205185586028	23
0	1973	153.242253381433	22
0	1976	153.703466762688	21
0	1979	153.865336682918	20
0	1981	153.912799978035	21
0	1984	154.012409954864	22
0	1985	154.021509367685	21
0	1987	154.088238367107	20
0	1990	154.173993759585	19
0	1992	154.261780459098	20
0	1993	154.301387309875	21
0	1994	154.41392726829	22
0	1997	154.48132145602	21
0	1999	154.498241923426	20
0	2001	154.719213197501	21
0	2002	154.722044765546	22
0	2003	154.735075016795	21
0	2006	155.081034849518	22
0	2007	155.211665934683	21
0	2009	155.384273395608	20
0	2012	155.474852331413	19
0	2014	155.722975329021	20
0	2015	155.867325541103	19
0	2019	156.192116345635	18
0	2021	156.306650177592	19
0	2022	156.473078968601	20
0	2024	156.660927855239	19
0	2026	156.824184516879	18
0	2028	156.931170723522	19
0	2029	157.208174473732	18
0	2031	157.470591361068	17
0	2034	157.545564228652	16
0	2036	157.592659071834	15
0	2039	157.743239755203	14
0	2041	157.803340479072	15
0	2042	157.97744433106	16
0	2044	158.162179184435	15
0	2046	158.34208690163	16
0	2047	158.536911542291	15
0	2050	158.729465586579	14
0	2052	158.805371836837	13
0	2054	158.930606736588	12
0	2057	159.019585321688	13
0	2059	159.28149189855	14
0	2063	159.556763616925	13
0	2065	159.563828221267	14
0	2066	159.586179866588	13
0	2068	159.689360635457	14
0	2069	159.726257643524	13
0	2071	159.753537066855	14
0	2072	159.757375085704	15
0	2073	159.826848951438	14
0	2077	160.158994235562	13
0	2079	160.172579950519	12
0	2083	160.28469631357	13
0	2085	160.363539074747	14
0	2086	160.533915972874	15
0	2087	160.566263616897	16
0	2088	160.648112654133	15
0	2090	160.659531844251	16
0	2091	160.92736309645	15
0	2093	160.959599256777	14
0	2097	161.381317892243	15
0	2099	161.649395538542	16
0	2101	161.754866962235	15
0	2103	161.824570872786	16
0	2104	161.926455500028	15
0	2107	162.008980946853	16
0	2110	162.216637339626	15
0	2112	162.240923028829	16
0	2114	162.331192115963	15
0	2116	162.366230960628	16
0	2117	162.409634621251	17
0	2119	162.612651731467	18
0	2120	162.711141483054	19
0	2122	162.923170055383	18
0	2124	162.986127730808	17
0	2126	163.056322674368	18
0	2127	163.101566332534	17
0	2130	163.268831576787	16
0	2132	163.27200547154	15
0	2134	163.429484330256	16
0	2136	163.968777355696	17
0	2138	164.422555114842	16
0	2141	164.54885697514	17
0	2143	164.65497099817	16
0	2146	164.803052383149	17
0	2147	164.856790125243	16
0	2149	164.948933376465	17
0	2150	165.027085290303	16
0	2152	165.086479063333	17
0	2157	165.595530645351	18
0	2158	165.628635472569	19
0	2161	165.769924385062	20
0	2162	165.842500307141	21
0	2164	165.881106138176	20
0	2166	165.962524076264	21
0	2167	166.048900308743	22
0	2168	166.146167089215	23
0	2171	166.5092470388	24
0	2172	166.652988525683	25
0	2175	167.027603002965	26
0	2177	167.090502823246	25
0	2179	167.252303773521	24
0	2181	167.31461033041	25
0	2182	167.351813999385	24
0	2184	167.368761801348	25
0	2186	167.460946792119	24
0	2188	167.528380414555	23
0	2190	167.63406080053	22
0	2192	167.74232910363	23
0	2194	167.931111599413	22
0	2196	168.056514404244	23
0	2197	168.420169215662	22
0	2199	168.957438818217	21
0	2202	169.200511592729	20
0	2204	169.434911386002	21
0	2205	169.679326406205	20
0	2207	169.848366915181	19
0	2212	170.315642510084	20
0	2213	170.421698726532	21
0	2214	170.43437390982	22
0	2216	170.571321622532	21
0	2219	170.774708527149	22
0	2222	171.06588925957	23
0	2223	171.330904489852	24
0	2225	171.353236264766	25
0	2226	171.470338936918	24
0	2228	171.500615984275	23
0	2230	171.606582061885	22
0	2232	171.640486954889	23
0	2237	172.145984112441	24
0	2238	172.157026324802	25
0	2240	172.300035683113	26
0	2241	172.441819555146	27
0	2242	172.52945908288	28
0	2243	173.042680895017	27
0	2245	173.127990656732	26
0	2247	173.250710044666	25
0	2249	173.287793814453	24
0	2252	173.991152090651	25
0	2253	174.040127291438	24
0	2255	174.090689957159	23
0	2259	174.428315450005	24
0	2260	174.640503470634	25
0	2262	174.711813488195	24
0	2264	174.739461461488	23
0	2266	174.747119271296	22
0	2268	174.993437723697	23
0	2269	175.0811118488	22
0	2272	175.139741040248	21
0	2274	175.194512660187	20
0	2276	175.418231320658	21
0	2277	175.490921075178	20
0	2280	175.711771841847	19
0	2282	175.74494384046	18
0	2284	175.750758529141	17
0	2286	175.806217308311	18
0	2287	175.835784855553	17
0	2290	176.283160505156	18
0	2293	176.947642034356	19
0	2294	176.978764041889	20
0	2295	177.236923329658	19
0	2297	177.310331354696	18
0	2299	177.36597927342	17
0	2303	177.718532237767	16
0	2305	177.747616349687	17
0	2306	177.806531790178	18
0	2307	177.906176826118	17
0	2309	178.19286855527	16
0	2311	178.208175398798	15
0	2313	178.219463259863	14
0	2315	178.2277991534	13
0	2319	178.583242371655	14
0	2320	178.625277028751	13
0	2322	178.716379291362	12
0	2324	178.716526920581	13
0	2325	178.895576841608	12
0	2329	179.243826008015	13
0	2330	179.538269598455	14
0	2332	179.986205265677	15
0	2334	180.484980171655	16
0	2337	180.735533527184	15
0	2339	180.773924724367	14
0	2341	180.803834997602	15
0	2342	180.893271575703	16
0	2345	181.235293274816	15
0	2348	181.356805349498	14
0	2350	181.38922435055	15
0	2351	181.419422749894	16
0	2352	181.446884270004	15
0	2357	181.609196307812	16
0	2360	181.724172750664	15
0	2362	181.750340490012	16
0	2363	181.763813964425	15
0	2365	181.767718287636	16
0	2366	181.893761263481	17
0	2367	181.99909092224	16
0	2369	182.011865870649	17
0	2370	182.014864850402	18
0	2371	182.478744497428	17
0	2373	182.956181298126	16
0	2377	183.589598524803	15
0	2379	183.833238639703	16
0	2380	183.853934664765	17
0	2381	184.098500196991	16
0	2383	184.204301008555	15
0	2386	184.686070133424	16
0	2387	184.75336475865	15
0	2390	185.25847352643	14
0	2392	185.424243783172	15
0	2393	185.549086793421	14
0	2395	185.551641345647	13
0	2397	185.645108627857	12
0	2400	185.797029024731	11
0	2402	185.97069248144	12
0	2403	185.979294182626	11
0	2406	186.356372262616	12
0	2407	186.526401870858	11
0	2410	186.742334959388	10
0	2412	186.877533734461	11
0	2415	187.576300832097	12
0	2417	187.74359071074	13
0	2418	188.028323335467	14
0	2419	188.3307190042	13
0	2423	188.678008042226	14
0	2424	188.701430044107	15
0	2428	189.021236046829	16
0	2430	189.08113944835	17
0	2431	189.101642971713	16
0	2434	189.140226641096	17
0	2435	189.379014307503	18
0	2436	189.383350315682	17
0	2438	189.4165036785	18
0	2439	189.430172145259	17
0	2441	189.435200084601	16
0	2444	189.793020708463	15
0	2446	189.895696124209	16
0	2447	190.602665406703	15
0	2450	190.905266921298	16
0	2452	191.055731159518	15
0	2454	191.162507297599	14
0	2456	191.237709451973	15
0	2458	191.61454969768	16
0	2459	191.835474792641	15
0	2462	192.045774631305	14
0	2466	192.268266127731	15
0	2467	192.468548078696	16
0	2468	192.470894259254	17
0	2469	192.516878622892	16
0	2471	192.862016842445	15
0	2473	193.149726553111	14
0	2477	193.491345600833	15
0	2479	193.648015755186	16
0	2481	193.89029694833	17
0	2482	193.988713532995	18
0	2483	194.103910187472	17
0	2487	194.52396533398	16
0	2490	194.542292617576	17
0	2492	194.731693776489	18
0	2493	194.839409270641	19
0	2495	194.929034217806	18
0	2497	194.93555623546	19
0	2499	195.14964020393	18
0	2501	195.178642810862	19
0	2502	195.196040574833	18
0	2505	195.263392976038	19
0	2506	195.406128653879	18
0	2508	195.516835431275	19
0	2510	195.623513964163	18
0	2513	195.901982714599	19
0	2514	196.192066464173	20
0	2515	196.342584783953	19
0	2517	196.387295442811	18
0	2519	196.442890393309	17
0	2523	196.830749682588	18
0	2524	196.96498217909	17
0	2527	197.11760406681	18
0	2528	197.22336863189	17
0	2530	197.27305261221	16
0	2532	197.374361114236	17
0	2533	197.41887620731	16
0	2535	197.468569175984	15
0	2538	197.735427210225	14
0	2540	197.888597277789	15
0	2545	198.43962516574	16
0	2546	198.449013198628	17
0	2547	198.462550891205	16
0	2550	198.517954431116	17
0	2551	198.566460252338	16
0	2553	198.630717287095	17
0	2555	198.807819819258	18
0	2556	198.841571598813	17
0	2558	198.908726711681	16
0	2561	199.080837940774	17
0	2562	199.140823733581	16
0	2564	199.282096024193	17
0	2565	199.308994462821	16
0	2569	199.727670506645	17
0	2570	199.839839014326	16
0	2572	199.945993058022	17
0	2575	200.185405045831	16
0	2578	200.338900992436	15
0	2580	200.350872445739	16
0	2581	200.384348296034	17
0	2583	200.53066106879	18
0	2584	200.536980992492	17
0	2587	200.708408700905	18
0	2588	200.981027844941	19
0	2589	201.288461917826	18
0	2591	201.432942675006	17
0	2593	201.48960089963	16
0	2595	202.099557689959	15
0	2597	202.777937124802	14
0	2600	203.095935020899	15
0	2601	203.611826775085	14
0	2604	204.037204167164	15
0	2605	204.645370321834	14
0	2607	204.722369437512	13
0	2612	204.996077680385	12
0	2614	205.09715609523	11
0	2616	205.107900652816	12
0	2617	205.159597175988	13
0	2619	205.244169280093	14
0	2620	205.45240076828	13
0	2622	205.523554804391	14
0	2623	205.529590153078	13
0	2625	205.796669742445	12
0	2627	205.90600106384	11
0	2629	205.910434721025	10
0	2632	206.324411178969	11
0	2633	206.341945076048	10
0	2636	206.414606142107	9
0	2638	206.552384018403	8
0	2641	206.665126392234	9
0	2642	206.923944565989	10
0	2643	207.159201318294	9
0	2647	207.290157530623	8
0	2649	207.522050174909	7
0	2651	207.552065917008	8
0	2652	207.562217420938	9
0	2655	208.389385799915	10
0	2656	208.415638120142	9
0	2658	208.475201505849	8
0	2660	208.548138505898	9
0	2661	208.553168396674	8
0	2663	208.876269586544	7
0	2667	209.215470810862	8
0	2668	209.331444359121	9
0	2671	210.38052138923	10
0	2674	210.643991149342	11
0	2676	210.873919896754	10
0	2678	210.883879670281	9
0	2680	210.914165245308	10
0	2681	210.922558979963	11
0	2683	211.000769868833	12
0	2684	211.104067556092	11
0	2686	211.300688819971	12
0	2687	211.30102501865	11
0	2690	211.360255480152	10
0	2692	211.53752385372	9
0	2694	211.628412809975	10
0	2695	211.707905280768	9
0	2699	212.113445238774	8
0	2701	212.119943745002	9
0	2702	212.174835089686	10
0	2704	212.25334522079	9
0	2706	212.268012800435	8
0	2709	212.540489181615	7
0	2711	212.540971189434	8
0	2712	212.835534766975	9
0	2716	213.195852969635	10
0	2718	213.296971432679	9
0	2720	213.379150655075	10
0	2721	213.426435877707	11
0	2722	213.451583576178	10
0	2724	213.538464353541	11
0	2725	213.855088078973	10
0	2727	214.50141173071	9
0	2729	214.747951948794	8
0	2731	215.966460611115	7
0	2733	216.140338293581	6
0	2737	216.788965424381	7
0	2738	216.977824113361	8
0	2740	217.273699270223	7
0	2742	217.35888029609	8
0	2743	217.38611509736	7
0	2745	218.360957193638	6
0	2747	218.669354142065	5
0	2749	218.702141274438	4
0	2753	219.239281272731	5
0	2754	219.470439944943	6
0	2756	219.770451661034	5
0	2758	219.811659157399	4
0	2760	219.82711059735	5
0	2761	219.84476155253	4
0	2763	220.086653523999	3
0	2765	220.236216691694	2
0	2770	220.829392828406	3
0	2771	220.946658986825	4
0	2772	220.958347063177	5
0	2775	221.546474508584	6
0	2777	221.762313030545	7
0	2781	222.040947703414	8
0	2782	222.102100255008	9
0	2783	222.163053197594	10
0	2785	222.251428031943	11
0	2787	222.477406297261	10
0	2789	222.495315615412	11
0	2790	222.557647399621	10
0	2792	222.693758002354	11
0	2794	223.07221273669	12
0	2795	223.229892408004	11
0	2797	224.460011914313	10
0	2799	224.466503553287	9
0	2802	224.869123737814	10
0	2803	225.120852168503	9
0	2806	225.23926622929	8
0	2808	225.488937871762	9
0	2809	225.752092767319	8
0	2811	225.877635983334	7
0	2817	226.237567064151	8
0	2820	226.493816768625	9
0	2821	226.510760431595	10
0	2822	226.510913370858	11
0	2823	226.640505375508	12
0	2824	226.710195687242	11
0	2827	226.728236839875	12
0	2828	226.909180784669	11
0	2830	227.011144554753	12
0	2832	227.119647202925	11
0	2834	227.218685479635	10
0	2836	227.352089616823	11
0	2838	227.492498505472	10
0	2841	227.62387489304	9
0	2843	227.654859909501	10
0	2844	227.749644201135	9
0	2847	227.901042523365	10
0	2848	227.951451379822	9
0	2850	228.146772608964	10
0	2852	228.30848773819	9
0	2854	228.337496233439	8
0	2857	228.600117223953	9
0	2859	228.755754767545	10
0	2860	228.769880741269	9
0	2862	228.9083178648	8
0	2864	228.986444840351	9
0	2866	229.098846992433	8
0	2872	229.359219043005	9
0	2874	229.440183209913	10
0	2875	229.444500225168	11
0	2876	229.489277647602	12
0	2877	229.516585830322	13
0	2878	229.676533265138	12
0	2880	229.737655167182	13
0	2885	230.062496744043	14
0	2886	230.125344594691	15
0	2888	230.205706740682	16
0	2889	230.208650721018	15
0	2891	230.315816989535	14
0	2893	230.328508994358	15
0	2894	230.466745861823	16
0	2897	230.935666805593	17
0	2898	230.953978559856	16
0	2900	231.03485066169	15
0	2903	231.094311731971	16
0	2904	231.194436667537	15
0	2906	231.340343541601	16
0	2909	231.766095842183	17
0	2911	231.843253819484	16
0	2913	231.850364397126	17
0	2914	231.866018698744	16
0	2916	232.105228978687	17
0	2917	232.199514106464	16
0	2920	232.577234028658	15
0	2922	232.586456568017	14
0	2924	232.734112966759	15
0	2925	232.780450798542	14
0	2927	233.058921909062	13
0	2930	233.21131578346	12
0	2932	233.462114921087	13
0	2935	233.801525904745	14
0	2936	233.80577776672	13
0	2938	233.855839623587	14
0	2939	234.125819307852	13
0	2941	234.279649194329	12
0	2945	234.538208563077	11
0	2947	234.648978906361	12
0	2949	234.790273479208	13
0	2950	235.089686755465	14
0	2954	235.553362174699	15
0	2955	235.575973196374	16
0	2957	235.827109394466	17
0	2958	236.123023642919	18
0	2959	236.206537681167	17
0	2964	236.331144109213	16
0	2967	236.511381091742	17
0	2968	236.518633789174	18
0	2969	236.551829413059	17
0	2971	236.601095548629	18
0	2974	236.790084745616	19
0	2975	236.830450490399	18
0	2977	236.848636400604	17
0	2979	236.967758282854	18
0	2980	237.048754680472	19
0	2981	237.050494251506	18
0	2983	237.052301758395	17
0	2986	237.167429380987	16
0	2989	237.332538167786	15
0	2991	237.340122182528	14
0	2993	237.406691556929	15
0	2994	237.50497152679	16
0	2995	237.524403076227	15
0	2997	237.815920552032	14
0	2999	237.853884484109	13
0	3003	238.180642621982	14
0	3004	238.342358343462	15
0	3006	238.430635526745	14
0	3008	238.498646932222	13
0	3012	238.670971775719	14
0	3013	238.733562612157	13
0	3017	238.87717624112	12
0	3019	238.91073048556	13
0	3020	238.952809946075	14
0	3021	239.090244617741	15
0	3022	239.125522124845	16
0	3024	239.339041853228	15
0	3026	239.492448800756	16
0	3027	239.589698601611	15
0	3029	239.63247480836	14
0	3033	239.865584665997	13
0	3035	239.914119220015	12
0	3037	239.953614815634	11
0	3040	240.103860113186	12
0	3041	240.106061170838	13
0	3043	240.28004270523	14
0	3045	240.463901849115	15
0	3046	240.475947237253	14
0	3048	240.507639319479	13
0	3050	240.521036273	12
0	3052	240.584895135915	13
0	3054	241.020920010487	12
0	3056	241.08451155831	13
0	3059	241.570833387971	12
0	3061	241.619597751389	13
0	3062	241.64608730717	12
0	3064	241.6896178094	11
0	3066	241.728054211743	10
0	3068	241.768712765303	11
0	3069	242.02369388344	10
0	3075	242.434530730631	11
0	3077	242.471046878644	12
0	3078	242.505850612019	11
0	3080	242.5431558437	12
0	3081	242.627592665732	13
0	3082	242.643764947304	12
0	3084	242.762497405346	13
0	3085	242.97380776043	12
0	3087	243.084544035945	11
0	3091	243.495509820882	10
0	3094	243.602915663181	11
0	3096	243.725164333937	12
0	3097	243.795655389256	13
0	3098	244.005043103097	14
0	3100	244.13291559922	13
0	3103	244.340350707314	12
0	3105	244.369811545611	11
0	3107	244.407172245322	12
0	3109	244.433247294536	13
0	3110	244.715899464965	14
0	3112	244.989585570033	13
0	3114	245.020169717232	12
0	3116	245.039149352015	13
0	3120	245.341123972483	14
0	3121	245.417430886214	15
0	3123	245.57117473675	16
0	3126	245.62822069447	15
0	3128	245.734714777427	16
0	3130	245.875813179525	17
0	3131	245.91910074558	18
0	3133	246.139011239681	19
0	3134	246.244382707949	18
0	3136	246.264307886377	19
0	3137	246.286198667893	18
0	3139	246.504279929634	17
0	3143	246.856049820562	18
0	3144	246.895480894937	17
0	3146	246.997080628704	16
0	3148	247.099658955509	17
0	3153	247.54949598054	18
0	3154	247.578128262844	17
0	3156	247.670738390117	18
0	3157	247.735544765211	19
0	3158	247.775197848275	20
0	3159	247.821640471384	19
0	3161	247.86855195689	18
0	3163	248.202639586416	17
0	3165	248.368798891319	16
0	3168	248.411217237541	15
0	3170	248.425135556939	14
0	3172	248.701129124161	15
0	3175	249.198815118402	16
0	3176	249.20306757102	17
0	3177	249.332868975241	16
0	3179	249.577455771406	15
0	3181	249.884996726486	14
0	3186	250.319187522915	15
0	3188	250.464430955458	14
0	3190	250.473754358057	13
0	3192	250.47841891402	14
0	3193	250.483803364666	15
0	3194	250.620147772478	16
0	3197	250.72879546128	15
0	3201	250.963486429886	16
0	3203	251.009106530929	17
0	3204	251.08783032936	18
0	3205	251.141213920879	19
0	3206	251.264985565879	20
0	3209	251.457818550194	19
0	3211	251.632255437753	20
0	3212	251.649201044274	21
0	3213	251.691551322765	20
0	3216	251.911433199077	19
0	3218	252.0929687851	20
0	3219	252.43368537542	19
0	3224	253.124089163089	20
0	3225	253.132698866547	21
0	3229	253.41142764768	22
0	3230	253.44275221787	21
0	3234	253.54619683377	22
0	3235	253.551435851605	23
0	3236	253.576587225745	22
0	3238	253.648938950342	23
0	3239	253.684634969859	22
0	3241	253.755065202903	23
0	3242	253.756281116002	22
0	3244	253.775172037077	23
0	3245	254.043263067518	22
0	3247	254.198585838483	21
0	3251	254.801925394845	22
0	3252	254.878825868724	23
0	3253	255.781437759693	22
0	3257	256.313767858044	23
0	3258	256.354619948408	22
0	3260	256.423893519121	23
0	3262	256.724111352643	22
0	3264	256.820906575346	23
0	3265	257.087157064848	22
0	3267	257.166393692309	21
0	3269	257.789892634217	20
0	3271	257.878075949164	19
0	3274	258.064099382367	18
0	3276	258.324872013336	19
0	3277	258.545719401504	18
0	3281	258.94965596747	19
0	3284	259.238170725219	20
0	3285	259.317766863586	21
0	3286	259.32863887331	22
0	3288	259.754812194786	23
0	3290	260.239254923752	24
0	3292	260.471227678713	23
0	3295	260.55910306728	22
0	3297	260.714588802155	23
0	3298	260.760880404508	22
0	3300	260.787589157911	23
0	3301	260.990639645277	22
0	3303	261.058532926013	21
0	3306	261.766736507432	22
0	3309	262.026109360141	21
0	3311	262.090431022027	22
0	3312	262.180332824512	23
0	3316	262.628741935345	24
0	3317	262.66533879763	25
0	3319	262.759167591339	26
0	3320	262.778175814062	25
0	3322	262.996001518436	26
0	3323	263.389141861412	25
0	3325	263.728935064072	24
0	3327	263.809602789825	23
0	3330	263.980798412992	22
0	3332	264.150527574045	23
0	3335	264.476485054825	24
0	3336	264.489180005613	23
0	3338	264.606833027495	24
0	3339	265.021697638229	23
0	3344	265.371775342009	24
0	3346	265.562545817698	25
0	3347	265.578280439283	26
0	3348	265.703323237515	25
0	3350	265.719685683538	24
0	3353	265.749247370794	25
0	3356	266.030269493189	26
0	3357	266.185121673031	27
0	3358	266.186478697573	28
0	3362	266.47805108534	27
0	3364	266.501447807315	26
0	3367	266.549053398547	25
0	3369	266.560170612971	26
0	3370	266.629353442224	25
0	3373	266.723021461111	26
0	3374	266.736600409297	27
0	3376	266.822122312404	28
0	3380	266.914960216515	27
0	3382	266.919391303717	26
0	3384	266.944318142974	25
0	3386	267.006651541784	26
0	3387	267.059480572568	27
0	3388	267.066746351778	26
0	3390	267.138188075391	27
0	3391	267.169760531699	28
0	3392	267.208709578056	29
0	3394	267.27835451718	28
0	3396	267.568443996144	29
0	3398	267.803578477218	28
0	3400	267.848374144321	27
0	3402	267.955328403669	26
0	3404	267.970587860194	25
0	3407	268.076209961235	26
0	3409	268.323402531315	27
0	3410	268.603639880129	28
0	3411	268.666481002068	27
0	3413	268.737045419305	26
0	3416	268.839111431552	25
0	3419	269.136249446057	26
0	3420	269.149481636011	27
0	3422	269.571701739121	28
0	3423	269.608920064152	27
0	3425	270.022092550801	26
0	3429	270.340490263697	27
0	3430	270.43761950207	28
0	3433	270.741639802622	27
0	3435	270.755792770369	28
0	3436	270.760317131385	29
0	3437	270.78226915924	28
0	3439	270.795816026253	27
0	3443	271.271717890589	28
0	3444	271.403938941306	27
0	3446	271.436652163862	28
0	3448	271.563160954501	27
0	3450	271.641321325927	26
0	3452	271.750974071204	27
0	3453	271.768295772503	26
0	3455	271.851879524549	25
0	3458	272.067359482438	24
0	3461	272.315779001874	25
0	3463	272.453575092577	26
0	3464	272.618005108995	27
0	3471	272.954517536763	28
0	3472	272.991766716534	29
0	3473	273.033129766469	30
0	3474	273.041987765572	31
0	3476	273.145422229888	30
0	3478	273.167013063574	31
0	3480	273.21221440752	32
0	3482	273.393290086897	33
0	3483	273.469038920483	32
0	3485	273.5120839622	33
0	3486	273.630388072704	34
0	3487	273.709813426155	33
0	3490	273.953988406828	32
0	3492	273.97236058044	31
0	3494	273.994645327139	30
0	3496	273.995223917252	29
0	3498	274.012221445611	28
0	3500	274.191324785621	29
0	3501	274.254983319819	28
0	3503	274.344058115516	27
0	3506	274.714034165355	28
0	3508	274.917007727143	27
0	3510	275.098795866087	28
0	3511	275.258930810454	27
0	3515	275.765927187797	28
0	3517	275.893199672144	27
0	3519	275.99650474916	28
0	3520	276.097068451369	29
0	3522	276.730423100068	28
0	3524	276.782401044817	29
0	3527	277.25188314392	30
0	3529	277.36117964406	29
0	3532	277.40513638899	28
0	3534	277.406206594331	29
0	3535	277.608534394663	30
0	3536	277.632769205917	29
0	3538	277.673129076341	30
0	3540	278.374633310623	29
0	3542	278.447310252945	28
0	3544	278.616328972429	29
0	3548	279.189765536148	30
0	3552	279.290507989342	31
0	3554	279.410451535039	32
0	3555	279.507423032376	33
0	3556	279.527122230264	34
0	3557	279.578586356916	35
0	3558	279.612895993826	34
0	3560	279.669527996422	35
0	3561	279.82106525912	34
0	3567	280.179669899857	35
0	3568	280.203542572723	34
0	3570	280.211737309729	35
0	3571	280.279561570743	36
0	3572	280.315095435174	37
0	3574	280.497775687413	36
0	3577	280.656850270697	35
0	3579	280.663695843372	34
0	3581	280.666367947097	35
0	3582	280.854809510214	36
0	3585	281.420328470157	37
0	3586	281.5077256288	38
0	3588	281.987592555924	37
0	3590	281.997277448226	36
0	3593	282.09534549591	37
0	3594	282.239607551974	36
0	3596	282.295223819974	35
0	3598	282.384179978528	36
0	3600	282.59308881654	35
0	3602	282.595909848167	34
0	3605	282.730812982296	35
0	3606	282.803759096818	34
0	3610	282.962514647881	35
0	3613	283.117019742097	36
0	3615	283.153212427076	37
0	3616	283.190981154226	36
0	3618	283.275445033482	35
0	3620	283.339924990679	36
0	3621	283.39637395426	37
0	3622	283.428215528575	38
0	3623	283.432855981873	37
0	3625	283.534292142259	36
0	3631	283.838504396608	37
0	3632	283.863762411497	38
0	3633	283.874463194235	39
0	3634	283.947718868264	40
0	3636	284.298226638967	39
0	3638	284.326608071043	38
0	3640	284.366229476072	39
0	3642	284.449675897422	38
0	3644	284.553513104913	37
0	3648	284.72073659072	38
0	3649	284.725837055318	37
0	3651	284.898590577711	36
0	3653	284.902320670102	37
0	3654	284.921928627775	38
0	3655	285.05107514668	37
0	3658	285.343269654712	36
0	3660	285.497295102094	37
0	3662	285.714157016412	36
0	3665	285.959501241911	37
0	3667	286.02066640689	38
0	3668	286.112890442704	37
0	3672	286.310316065656	38
0	3673	286.535337857283	39
0	3674	286.540036975079	40
0	3678	286.952748905732	41
0	3679	287.071288822739	42
0	3680	287.127759644909	41
0	3682	287.134755884778	42
0	3684	287.209891627071	41
0	3689	287.45118030935	40
0	3691	287.456537625053	41
0	3692	287.579387438885	42
0	3693	287.610865279593	43
0	3694	287.635704890473	44
0	3695	287.747954807661	43
0	3697	287.82417471688	42
0	3700	288.229111629983	43
0	3702	288.496089245388	42
0	3704	288.534119274148	43
0	3707	289.16029941971	44
0	3708	289.219475544055	43
0	3710	289.341638404467	42
0	3712	289.42257144783	43
0	3713	289.53388198772	42
0	3717	289.828364949241	41
0	3719	289.845127749267	40
0	3721	289.950775132195	41
0	3722	289.988718517462	42
0	3723	290.347157096614	41
0	3725	290.57974566819	40
0	3731	290.900951022523	41
0	3732	290.935156460629	42
0	3734	291.002726873597	43
0	3736	291.168667425257	42
0	3738	291.178938792614	43
0	3740	291.263031301451	44
0	3741	291.335209645481	45
0	3742	291.495173322185	46
0	3743	291.553203116247	45
0	3745	291.601791418337	44
0	3747	291.663691934214	43
0	3749	291.689717526993	42
0	3752	291.812740379801	41
0	3754	292.042415377366	42
0	3758	292.388812343712	41
0	3760	292.424690034402	40
0	3762	292.467886049581	41
0	3763	292.528776273437	42
0	3765	292.600235029952	43
0	3766	292.847270735859	44
0	3768	293.299735394157	43
0	3770	293.394174383504	44
0	3777	293.750568835384	45
0	3779	293.799338244072	46
0	3782	293.961490298362	47
0	3783	293.974957941436	48
0	3784	293.986973601707	49
0	3785	294.022103466681	50
0	3786	294.088716512325	51
0	3787	294.23730735733	52
0	3788	294.240083301121	53
0	3789	294.5537160986	52
0	3794	294.870889670576	53
0	3795	294.973471080854	54
0	3796	295.092334672965	55
0	3799	295.185119323274	54
0	3803	295.425832761016	55
0	3804	295.475367717419	56
0	3807	295.580357421194	57
0	3808	295.588106787355	58
0	3809	295.835606590742	59
0	3810	295.875171162523	60
0	3811	295.883149504646	59
0	3813	295.994926664864	58
0	3815	296.018212575396	57
0	3819	296.529516683199	58
0	3820	296.595352844095	59
0	3821	296.959986599629	58
0	3824	297.31035937667	57
0	3827	297.437259167746	56
0	3829	297.525589906598	55
0	3831	297.530591312117	54
0	3833	297.545371511616	53
0	3835	297.550822752101	52
0	3837	297.551206591936	53
0	3838	297.626036604145	52
0	3840	297.665267290911	53
0	3841	297.820299070516	52
0	3844	297.879870206906	51
0	3846	297.900675523232	50
0	3848	298.164234673439	51
0	3849	298.196900513438	50
0	3853	298.498390903562	51
0	3854	298.516803099762	50
0	3856	298.538621258293	49
0	3858	298.574096037762	50
0	3861	298.921591552877	49
0	3863	298.989456935075	48
0	3865	299.003852770184	49
0	3867	299.177798902925	50
0	3871	299.398481227163	51
0	3872	299.491350009799	52
0	3873	299.518902743216	53
0	3874	299.605679648526	52
0	3876	299.672043149249	53
0	3877	299.693806453059	52
0	3880	299.758832352925	51
0	3882	299.998913431558	52
0	3883	300.108012730459	51
0	3885	300.170505436684	50
0	3889	300.853679349263	51
0	3890	300.867509592207	50
0	3892	300.882496895774	51
0	3894	301.207516701917	52
0	3896	301.468534364115	51
0	3900	301.606698186227	52
0	3901	301.792202885992	53
0	3902	301.812051935352	54
0	3903	301.835085999531	53
0	3905	301.841682924093	52
0	3907	302.118293565937	51
0	3910	302.467913674209	52
0	3911	302.748863907771	51
0	3913	303.348690412892	50
0	3916	303.781896822386	49
0	3919	304.071096508921	50
0	3920	304.112435599002	51
0	3921	304.189417037614	50
0	3924	304.373385695273	49
0	3926	304.469788012037	48
0	3928	304.59406511029	47
0	3930	304.673215631651	48
0	3932	304.741251460217	47
0	3934	304.786193203844	46
0	3936	304.999927271683	47
0	3938	305.436848594525	48
0	3939	305.966176365253	47
0	3941	306.313037323732	46
0	3944	306.600540167253	45
0	3946	306.701090595409	46
0	3947	306.709019963489	45
0	3951	307.048010775146	46
0	3952	307.193824648337	45
0	3954	307.244075680363	46
0	3956	307.590686402498	45
0	3958	307.679215059271	46
0	3959	307.700025138463	45
0	3965	308.128716393125	46
0	3967	308.227492794687	47
0	3968	308.293610179621	48
0	3969	308.339685092019	47
0	3971	308.403709291502	46
0	3973	308.413501162286	47
0	3974	308.500783551676	48
0	3976	308.816559676819	49
0	3979	308.895537600793	48
0	3981	309.129639367372	49
0	3983	309.170133252019	50
0	3984	309.454126301386	51
0	3985	309.494469060277	50
0	3988	309.758764426047	49
0	3991	309.895051767643	48
0	3993	309.975860839914	49
0	3994	310.068160202136	50
0	3996	310.237358828669	49
0	3998	310.262147362975	48
0	4000	310.330192138056	47
0	4002	310.509702434146	48
0	4004	310.724401935673	47
0	4008	310.871105799216	46
0	4010	310.960699688076	47
0	4011	311.105976930595	48
0	4012	311.146843316932	49
0	4017	311.556076860584	50
0	4018	311.656210095316	49
0	4020	311.657234736588	50
0	4021	311.70075867939	51
0	4022	311.732148802355	52
0	4023	311.879542238323	51
0	4026	312.248288152701	52
0	4027	312.361151896964	51
0	4029	312.552366487961	50
0	4037	312.921882902158	51
0	4038	312.961077521356	52
0	4040	313.096894738939	53
0	4041	313.140351604974	54
0	4042	313.188723313038	55
0	4043	313.192537282547	56
0	4045	313.35458754401	55
0	4047	313.382507206877	56
0	4048	313.545652584469	57
0	4050	313.716764974527	56
0	4052	313.802851086696	55
0	4054	313.888440101609	56
0	4055	313.928244019458	55
0	4057	314.113070938987	54
0	4059	314.133052276305	53
0	4064	314.45581200153	54
0	4065	314.467373132549	55
0	4066	314.475600302121	56
0	4068	314.514547229994	55
0	4070	314.799808143271	56
0	4073	314.992318837312	55
0	4075	315.051591907077	54
0	4077	315.164850006469	55
0	4078	315.228288528362	56
0	4079	315.645311423653	55
0	4081	315.86030950567	54
0	4084	315.872574267924	53
0	4089	316.164364741971	54
0	4090	316.265267230301	55
0	4091	316.314425971611	54
0	4094	316.394113319765	55
0	4095	316.398959480416	56
0	4096	316.4059211466	55
0	4098	316.640411975285	56
0	4099	316.80650267101	55
0	4101	316.989364868854	54
0	4103	317.072179002859	53
0	4107	317.382535457387	52
0	4110	317.5881726617	53
0	4113	317.670961934627	54
0	4114	317.678541728609	53
0	4118	317.83331749483	52
0	4120	317.840822742373	53
0	4121	317.891013432533	54
0	4122	317.903204888794	55
0	4123	317.983278238222	56
0	4125	318.109474803799	57
0	4127	318.391452728209	58
0	4129	318.440415752921	57
0	4131	318.510157341603	56
0	4133	318.543780880264	57
0	4134	318.643402969123	56
0	4137	318.700815288295	57
0	4138	318.79294960299	56
0	4141	318.963846942419	57
0	4142	319.082568109453	56
0	4144	319.164866208953	57
0	4146	319.638088457537	56
0	4151	319.872897647274	57
0	4154	320.086836339395	56
0	4156	320.130907364422	57
0	4157	320.155011112526	58
0	4158	320.167485387693	59
0	4159	320.285745900157	60
0	4160	320.347153460583	61
0	4161	320.550347041795	60
0	4164	320.72514227907	59
0	4167	320.879086609986	58
0	4170	320.980882366239	59
0	4171	321.139382630882	60
0	4172	321.258652498622	61
0	4173	321.324775949053	60
0	4175	321.365999546408	59
0	4177	321.37491237103	58
0	4179	321.750733010135	57
0	4182	322.08615853579	58
0	4183	322.115834711724	57
0	4186	322.665222986238	56
0	4188	322.686717473871	57
0	4189	323.284120561221	56
0	4192	323.759182543519	55
0	4195	323.929282280914	54
0	4197	323.978207709743	53
0	4199	323.992580448832	54
0	4201	324.064322568183	55
0	4204	324.338481224865	56
0	4206	324.458165725367	57
0	4207	324.494126281736	58
0	4208	324.742469792212	59
0	4210	325.22234116837	58
0	4212	325.238921866057	57
0	4214	325.382386596817	58
0	4215	325.658986108723	57
0	4218	325.721131398987	56
0	4220	325.798474580637	55
0	4222	325.838650092282	54
0	4224	325.981639333034	55
0	4226	326.372437780218	56
0	4227	326.633119629897	55
0	4229	326.685842219294	54
0	4231	326.752595721616	53
0	4233	326.812330984561	52
0	4236	327.878776255075	51
0	4238	328.173150650483	52
0	4242	328.772412680055	53
0	4243	328.873453457979	54
0	4244	328.886869730374	55
0	4246	329.37351668711	54
0	4248	329.418847997741	53
0	4251	329.512634661234	52
0	4255	329.623607754487	53
0	4256	329.770749486822	54
0	4257	329.816112811489	55
0	4258	329.868592078811	56
0	4259	329.991502949103	55
0	4262	330.278992114287	54
0	4265	330.37103605951	55
0	4267	330.524308077434	54
0	4269	330.64545060438	55
0	4270	330.705657642701	56
0	4271	330.723540914601	55
0	4277	331.025109590419	54
0	4279	331.085424334665	55
0	4280	331.126646900171	56
0	4281	331.239772446515	57
0	4282	331.258863916954	58
0	4283	331.413147087625	57
0	4285	331.539536751677	56
0	4287	331.851329530773	55
0	4289	331.905480989155	54
0	4291	332.03070907511	53
0	4294	332.47615620414	54
0	4298	332.803868019424	55
0	4300	333.023406515106	56
0	4301	333.083985325132	57
0	4302	333.126625035439	58
0	4303	333.13369576513	57
0	4307	333.331664016217	56
0	4309	333.446769575692	57
0	4310	333.500448025375	56
0	4312	333.520755353273	55
0	4314	333.610254785316	56
0	4316	334.008973648182	57
0	4317	334.239333633335	56
0	4320	334.293441971104	55
0	4322	334.334729896479	54
0	4326	334.589000629364	55
0	4328	334.639529849557	54
0	4331	334.663386684507	55
0	4332	334.837935410968	56
0	4333	334.914644066206	57
0	4335	334.963080551463	58
0	4336	335.217251036756	59
0	4337	335.229231668388	58
0	4340	335.414017716459	57
0	4342	335.569974976819	58
0	4343	335.606039298383	57
0	4346	335.776289487499	56
0	4348	335.946379467106	57
0	4349	336.148839094762	56
0	4353	336.54091642874	55
0	4355	336.790111959435	56
0	4356	336.796807460315	57
0	4357	336.987420062876	56
0	4359	337.101119915793	55
0	4364	337.468183179762	54
0	4366	337.503420767389	55
0	4367	337.516826786258	56
0	4368	337.65517577679	57
0	4371	338.022814111887	58
0	4372	338.028535955339	59
0	4373	338.120500607592	58
0	4375	338.162445732608	57
0	4379	338.426634134292	56
0	4381	338.531822602051	55
0	4384	338.591920825403	56
0	4385	338.618199867866	57
0	4388	338.839087347399	58
0	4389	339.011969405285	59
0	4390	339.0418083395	60
0	4393	339.446505139954	61
0	4394	339.503292502517	62
0	4396	339.910771338272	63
0	4398	340.278794024328	62
0	4400	340.304218608891	61
0	4402	340.316819290276	62
0	4403	340.34189870188	61
0	4405	340.634563393075	60
0	4407	340.977061930238	59
0	4409	341.489122120787	58
0	4412	342.159218922125	59
0	4414	342.461866698356	58
0	4416	342.664394586311	59
0	4418	342.992499920643	60
0	4419	343.136754823005	59
0	4421	343.180426271016	58
0	4426	343.600865095978	57
0	4428	343.637621825266	58
0	4429	343.640020328236	57
0	4432	343.762361700857	58
0	4434	343.820988968046	57
0	4436	343.881172481759	58
0	4437	344.047108394503	59
0	4438	344.08262404895	60
0	4439	344.155471753046	59
0	4441	344.187888364328	58
0	4443	344.509835017385	57
0	4446	344.845252846149	56
0	4450	344.982614146066	57
0	4452	345.127426001082	56
0	4454	345.151742069545	57
0	4455	345.161070423861	58
0	4456	345.241004811975	57
0	4458	345.324477813249	58
0	4459	345.437776172455	57
0	4461	345.466374941421	56
0	4465	346.035869607141	55
0	4467	346.069990517362	56
0	4468	346.243586868213	57
0	4469	346.487749853994	56
0	4471	346.506282927922	55
0	4473	346.537099563928	54
0	4478	347.660125282253	55
0	4479	347.727425042337	56
0	4480	347.82143906618	57
0	4481	347.969922650899	56
0	4484	348.172298259823	55
0	4486	348.306744712489	56
0	4487	348.455725978391	55
0	4490	348.482555273149	54
0	4492	348.50610440939	53
0	4494	348.769691497858	54
0	4496	348.93389244277	53
0	4498	349.117116428596	54
0	4499	349.385292903919	53
0	4502	349.515003312664	52
0	4506	349.714056212977	53
0	4508	349.976422307756	54
0	4509	350.005126703663	55
0	4510	350.06772643719	56
0	4512	350.719488644328	57
0	4513	350.93221958912	56
0	4515	351.014573344857	55
0	4519	351.360012006478	54
0	4521	351.470891448778	55
0	4522	351.651628713762	56
0	4523	351.710174272771	55
0	4525	351.880197174591	54
0	4527	352.158747229011	53
0	4529	352.244433201372	52
0	4531	352.259724458435	51
0	4535	352.571869193028	50
0	4537	352.670717216297	51
0	4538	352.740970852842	50
0	4540	352.811862829233	51
0	4542	353.053234380452	50
0	4544	353.134209936295	51
0	4546	353.638499940363	50
0	4549	353.88091221346	51
0	4550	353.92436958073	50
0	4552	354.015430891394	51
0	4553	354.028529974283	50
0	4555	354.58686398054	49
0	4557	354.935205595746	48
0	4560	355.082657630637	47
0	4562	355.367826892956	48
0	4564	355.637817846952	47
0	4566	355.72964349452	46
0	4568	355.904521783148	47
0	4569	356.100364714045	46
0	4571	356.131245965714	45
0	4576	356.468684686745	46
0	4578	356.68270948653	47
0	4579	356.745912441911	48
0	4581	356.78993927839	47
0	4584	356.87888527342	46
0	4587	356.890064004821	47
0	4589	356.999822984291	46
0	4591	357.068434534155	47
0	4594	357.139493406933	48
0	4595	357.181202061469	49
0	4596	357.239284559216	50
0	4597	357.246823374018	49
0	4600	357.387798383272	48
0	4602	357.40233916065	49
0	4603	357.410151615787	50
0	4606	357.552182307198	51
0	4608	357.710716283743	52
0	4609	357.78809183216	53
0	4610	357.825405406772	52
0	4612	357.878612889495	51
0	4614	357.982060516607	52
0	4615	358.14241486407	51
0	4618	358.81734682897	50
0	4622	358.982808105868	51
0	4623	359.147449159357	52
0	4624	359.150349650919	53
0	4627	359.981097017693	54
0	4628	359.986610716322	53
0	4631	360.171060636257	54
0	4632	360.447510237045	55
0	4633	360.537725324538	54
0	4636	360.877913346808	53
0	4638	360.936420050596	52
0	4640	361.038589457418	53
0	4641	361.204246060152	52
0	4643	361.536808201547	51
0	4645	361.640000224761	50
0	4649	361.831293122828	49
0	4651	362.058035116538	50
0	4652	362.093664675959	51
0	4653	362.668757272581	50
0	4658	363.046683197555	51
0	4660	363.330713486991	52
0	4661	363.337287909365	53
0	4662	363.353498433614	54
0	4663	363.375777152104	53
0	4667	363.454330987788	52
0	4671	363.694433962688	53
0	4672	363.707063357927	54
0	4673	363.833886220788	55
0	4675	363.898887160656	54
0	4677	363.979261676687	55
0	4678	364.139800327393	56
0	4680	364.183898550472	55
0	4682	364.483216918874	56
0	4686	364.710093205719	55
0	4688	364.799425826448	56
0	4689	364.853677304962	57
0	4690	364.866083977939	56
0	4692	364.989337783951	57
0	4696	365.293829887695	58
0	4698	365.395485651874	59
0	4701	365.584266152189	60
0	4702	365.584754041119	59
0	4704	365.613934618856	60
0	4705	365.621923664394	59
0	4708	365.739639105917	60
0	4709	365.800403338433	61
0	4710	365.938839542457	62
0	4712	366.245534048061	63
0	4715	366.777313566014	64
0	4716	366.779602856204	65
0	4717	366.808755182326	64
0	4719	366.815594780698	63
0	4721	366.927693766133	62
0	4724	367.334388364945	61
0	4726	367.367766742412	62
0	4727	367.41434319819	61
0	4731	367.565056311124	60
0	4733	367.805930832028	61
0	4734	367.819907847065	62
0	4735	367.914175787976	61
0	4738	367.963652330259	60
0	4740	368.210977416087	59
0	4742	368.225037602494	60
0	4744	368.53901300212	61
0	4746	368.612304550576	60
0	4749	368.844826778382	61
0	4750	368.848203766176	60
0	4752	368.891159827925	59
0	4754	369.052187475517	58
0	4757	369.099831010161	59
0	4758	369.358436557663	60
0	4761	369.595228717567	59
0	4764	369.68983343625	58
0	4766	369.76331831999	59
0	4767	369.830293208269	60
0	4768	369.924589541914	61
0	4770	370.288776709107	62
0	4771	370.510261693274	61
0	4774	370.630242792919	60
0	4776	370.85878370604	59
0	4778	370.890480042016	60
0	4779	370.954604380231	59
0	4781	371.438393815568	58
0	4784	372.137300808467	59
0	4785	372.193688680869	58
0	4787	372.265220435467	57
0	4789	372.335356074628	56
0	4791	372.367277872047	55
0	4793	372.403485664748	54
0	4795	372.708759312399	53
0	4797	372.866679850084	52
0	4799	373.054555670899	51
0	4801	373.129432142188	50
0	4803	373.364283722409	49
0	4805	373.385597577597	48
0	4808	373.873371871237	47
0	4810	373.941841007318	48
0	4812	374.053805716132	47
0	4815	374.249489627725	48
0	4816	374.457998140009	47
0	4818	374.51470346889	48
0	4819	374.618207391422	47
0	4822	374.791242140023	46
0	4825	375.055602965001	47
0	4827	375.230542125015	48
0	4830	375.479636027272	49
0	4832	375.613393052388	48
0	4834	375.626365837154	49
0	4835	375.715728037777	48
0	4839	375.7474380712	49
0	4840	375.780106011144	48
0	4842	375.783786129626	47
0	4844	375.790651969175	48
0	4845	376.006237643937	47
0	4848	376.022651304209	48
0	4849	376.02279869588	49
0	4850	376.087075946428	48
0	4853	376.309776042013	49
0	4855	376.506205592425	50
0	4857	376.705207926173	51
0	4858	376.739498267962	50
0	4861	376.972671831857	51
0	4862	377.208140048778	52
0	4864	377.397773043162	51
0	4866	377.465578403491	50
0	4868	377.538063382363	49
0	4870	377.606829880263	50
0	4871	377.705909233674	49
0	4873	377.854118518698	48
0	4875	377.8700723489	47
0	4877	377.928903883053	46
0	4879	378.040510741966	45
0	4882	378.259345292677	44
0	4884	378.339355306698	43
0	4886	378.395625692401	42
0	4888	378.455666720594	41
0	4890	378.557201890907	42
0	4891	378.687270855367	41
0	4893	378.843364845239	40
0	4895	378.913458999114	39
0	4898	379.147044159225	38
0	4900	379.261174497065	39
0	4902	379.329896722856	38
0	4904	379.598332079729	39
0	4908	379.926954149343	40
0	4910	380.089244967703	41
0	4911	380.149517219992	42
0	4913	380.181412340012	41
0	4915	380.337601740729	42
0	4916	380.414784462199	41
0	4918	380.452288106854	42
0	4920	380.702844879769	41
0	4923	380.955853811028	40
0	4925	380.983833525891	41
0	4927	381.159405446363	42
0	4928	381.210201732311	41
0	4930	381.406910647792	42
0	4931	381.569541652511	41
0	4934	381.868915602079	40
0	4937	382.061543480518	41
0	4938	382.140556984241	40
0	4941	382.246869785015	39
0	4943	382.332671575424	40
0	4945	382.499806935946	41
0	4946	382.703555303194	40
0	4948	382.709587543728	41
0	4950	383.075348766232	42
0	4952	383.613347142458	41
0	4955	383.810515122362	40
0	4958	383.873900418542	41
0	4959	383.976895324081	40
0	4961	383.996512530401	41
0	4962	384.0833162674	40
0	4964	384.122839253397	41
0	4965	384.209281614688	40
0	4968	384.448250934543	39
0	4972	384.684168007479	40
0	4973	384.749929516341	41
0	4974	384.760728646245	40
0	4976	384.838406076454	41
0	4980	386.022713443729	40
0	4982	386.07791719593	41
0	4983	386.214764980138	42
0	4984	386.287363256738	43
0	4987	386.619565727313	44
0	4988	386.735054606635	43
0	4991	386.894466870308	44
0	4992	386.896252813165	43
0	4996	387.007020860557	42
0	4998	387.164497406826	41
0	5000	387.16554780708	42
0	5002	387.298649856139	43
0	5003	387.303464320179	44
0	5004	387.433427413516	43
0	5006	387.479366966099	42
0	5008	387.525772178397	43
0	5009	387.58282374705	42
0	5014	387.896306828208	43
0	5015	387.981957523485	44
0	5016	388.060297101343	43
0	5018	388.07125198716	42
0	5020	388.09437717271	43
0	5021	388.260096272686	42
0	5023	388.446190789686	41
0	5026	388.478042084504	40
0	5029	388.770604243839	41
0	5030	388.807841307989	42
0	5032	389.134911363033	43
0	5034	389.344944819019	42
0	5036	389.50766115027	43
0	5037	389.546141693881	42
0	5041	390.041151241964	43
0	5042	390.091717477508	42
0	5045	390.248685963349	43
0	5048	390.448535488953	42
0	5050	390.51361025058	43
0	5052	390.611505561501	44
0	5054	390.625862944839	45
0	5055	390.871470186904	46
0	5056	390.884946300744	45
0	5058	390.918187062359	46
0	5060	391.379920090539	45
0	5062	391.423481775663	44
0	5064	391.625344085971	45
0	5065	391.769868355985	44
0	5067	391.98379860913	43
0	5069	392.103871817116	42
0	5072	392.421404867263	41
0	5074	392.466591923709	40
0	5076	392.58942183271	41
0	5077	392.7160371423	40
0	5079	392.736490633142	39
0	5081	392.76697722582	38
0	5084	393.806007527771	37
0	5086	393.857225677548	38
0	5087	393.878606375129	37
0	5089	393.967178067801	36
0	5093	394.208580807683	35
0	5095	394.27659112809	36
0	5096	394.3807112231	35
0	5098	394.46991214882	36
0	5100	394.719352770529	35
0	5102	394.81432335887	36
0	5104	395.130723915009	37
0	5105	395.280889343965	36
0	5109	396.100196183448	37
0	5111	396.25526820923	38
0	5113	396.453577293464	39
0	5116	396.610248699515	40
0	5117	396.800165908762	41
0	5118	396.880272282051	40
0	5120	396.88332172301	41
0	5121	397.112743273559	40
0	5123	397.16899222861	39
0	5125	397.251360533458	38
0	5127	397.286075113951	37
0	5129	397.512958582929	36
0	5133	397.991897135023	37
0	5134	398.031628358278	38
0	5138	398.345455023007	39
0	5139	398.356029156112	40
0	5141	398.603893770573	41
0	5142	398.787533358591	40
0	5144	398.822341994426	41
0	5145	399.049466466657	40
0	5148	399.21494787544	39
0	5151	399.341216274913	38
0	5153	399.412603364183	37
0	5155	399.437863853581	38
0	5156	399.570876151099	39
0	5158	399.629005054184	38
0	5160	399.673380797218	37
0	5162	399.878086661892	38
0	5165	400.350877814432	37
0	5167	400.378964001826	38
0	5168	400.40420256856	37
0	5172	400.56598809534	38
0	5173	400.733368062352	39
0	5174	400.755180269469	40
0	5177	401.239637746105	41
0	5179	401.32907888049	42
0	5181	401.454024946473	41
0	5183	401.470841267564	40
0	5185	401.541250325034	41
0	5186	401.652420085498	42
0	5188	402.096236370887	43
0	5189	402.167391801078	42
0	5191	402.326602058762	41
0	5194	402.629924473673	42
0	5195	403.540672126789	41
0	5197	404.01431370394	40
0	5199	404.015780441435	39
0	5201	404.263805510635	38
0	5203	404.449278663629	37
0	5206	404.815301568432	38
0	5209	405.551971371544	39
0	5210	405.816874443126	40
0	5211	405.848510812122	39
0	5215	406.32961301209	40
0	5216	406.586816178296	41
0	5218	406.754917757416	40
0	5220	406.892705011046	41
0	5221	406.900956602821	40
0	5225	407.945495412179	39
0	5230	408.143243758263	38
0	5232	408.155654436247	39
0	5233	408.192636807058	40
0	5234	408.260703869238	41
0	5235	408.288903091594	42
0	5236	408.430883197143	43
0	5237	409.020799202395	42
0	5243	409.327776145251	41
0	5245	409.356333224086	42
0	5246	409.39149235077	41
0	5248	409.422042425726	42
0	5249	409.455896338478	41
0	5251	409.530747820781	40
0	5253	409.565702127219	41
0	5254	409.584051582651	42
0	5258	409.910710534535	43
0	5259	409.916973724759	44
0	5260	409.987253103373	43
0	5262	409.989566970929	44
0	5263	410.178489680131	43
0	5266	410.259748561805	42
0	5270	410.437059740389	41
0	5272	410.52351329525	42
0	5274	410.706788891323	43
0	5275	410.720354357097	44
0	5276	410.756060274401	43
0	5278	410.769896166365	42
0	5280	410.840729081897	43
0	5285	411.204550174278	44
0	5286	411.379623252861	45
0	5288	411.414039216671	46
0	5289	411.466526937686	47
0	5290	411.695266622729	48
0	5291	411.782332129846	47
0	5293	411.794885381009	46
0	5296	412.12281964552	47
0	5297	412.584141467907	46
0	5299	412.69178806226	45
0	5301	412.742195066988	44
0	5303	412.831849563362	43
0	5306	413.027942742807	42
0	5310	413.179340214374	43
0	5311	413.247324137556	42
0	5314	413.394960586969	43
0	5315	413.440349112691	44
0	5316	413.516986300516	43
0	5319	413.611613178061	44
0	5320	413.623412084388	43
0	5322	413.829005615258	44
0	5323	413.844404456335	43
0	5326	414.154613737679	44
0	5328	414.372482187634	43
0	5331	414.613726767683	42
0	5333	414.641897810166	43
0	5335	414.717614962965	44
0	5336	414.981776201874	45
0	5338	415.275547692903	44
0	5343	415.514418730397	43
0	5345	415.562060741799	44
0	5346	415.572009303493	43
0	5348	415.601877320058	44
0	5349	415.649228403016	45
0	5350	415.743946666837	46
0	5352	416.061384829417	45
0	5355	416.288300176655	46
0	5356	416.506063898323	45
0	5358	416.555243113305	44
0	5360	416.559803033227	45
0	5361	417.177827231033	44
0	5363	417.178308333402	43
0	5366	418.075669814974	42
0	5368	418.14754266329	41
0	5371	418.260060937403	42
0	5372	418.450758289935	43
0	5374	418.573053985009	42
0	5376	418.579915503156	41
0	5381	418.808102171292	42
0	5382	418.906206287329	43
0	5383	418.939578335374	44
0	5385	419.028912197639	45
0	5386	419.284517742949	46
0	5388	419.79596829873	47
0	5392	420.202586920538	48
0	5395	420.323965960139	49
0	5396	420.337991672082	50
0	5398	420.567775094859	51
0	5399	420.60455700439	52
0	5400	420.740736671239	53
0	5401	421.016319606599	52
0	5403	421.140909692411	51
0	5406	421.467422993112	52
0	5408	421.619837232983	51
0	5410	421.624049499557	50
0	5412	421.652532814324	49
0	5415	421.879718580646	50
0	5417	422.127059367087	51
0	5420	422.362798165398	52
0	5421	422.465615267006	51
0	5424	422.579780424009	50
0	5426	422.599023595099	51
0	5427	422.639941124048	52
0	5428	422.82727558925	53
0	5430	422.886937333554	52
0	5432	422.899345354434	51
0	5436	423.145226699902	52
0	5437	423.205789130208	51
0	5439	423.231011094327	50
0	5441	423.365940966023	51
0	5442	423.422389276027	52
0	5444	423.63974734853	51
0	5446	423.723659450943	52
0	5447	423.73106935548	51
0	5449	423.747972921655	50
0	5453	424.070013761925	51
0	5454	424.070834530369	52
0	5457	424.499238211356	53
0	5459	424.549335035942	52
0	5461	424.552046768463	53
0	5464	424.82162534162	54
0	5466	424.909104138833	53
0	5468	424.949535870755	52
0	5470	424.99547031419	53
0	5471	425.040000951112	52
0	5473	425.090957554196	53
0	5474	425.137503073273	54
0	5477	425.563482999334	55
0	5478	425.65524861366	56
0	5479	426.177374702402	55
0	5483	426.637873283555	56
0	5484	426.831008494852	57
0	5485	427.024449288219	56
0	5487	427.035783305194	55
0	5490	427.514419294042	56
0	5493	427.676624258219	55
0	5496	427.754274211869	54
0	5498	427.900240152984	55
0	5500	427.959606561653	54
0	5502	427.969458849127	55
0	5504	428.048995536849	56
0	5505	428.124989782203	55
0	5507	428.254854071602	56
0	5508	428.271705726782	57
0	5509	428.331511338541	56
0	5511	428.338338848138	55
0	5513	428.797466197023	54
0	5519	429.156151768697	55
0	5520	429.192424210723	56
0	5521	429.1960653101	57
0	5522	429.240652553973	58
0	5525	429.425358077454	57
0	5527	429.489366989918	56
0	5529	429.622787290016	57
0	5530	429.644779987227	58
0	5531	429.988027332597	57
0	5533	430.051260907119	56
0	5535	430.154046947817	55
0	5539	430.63981788023	56
0	5541	430.727431131752	55
0	5543	430.830370217416	56
0	5544	430.969184955865	55
0	5546	430.986477998351	56
0	5547	431.020789580469	55
0	5549	431.308357398497	54
0	5553	432.182520154146	55
0	5555	432.37971636354	56
0	5556	432.403104788264	55
0	5561	432.539780643734	56
0	5562	432.645729484668	55
0	5564	432.683363283197	54
0	5566	432.802400018518	55
0	5567	432.835491218105	56
0	5568	432.839631065443	57
0	5569	432.984363154354	56
0	5571	432.98837587979	55
0	5573	433.072321768348	54
0	5575	433.183800179338	53
0	5578	433.463986251079	52
0	5581	433.714684189445	53
0	5582	433.912393252348	54
0	5584	434.138243176797	53
0	5586	434.366995190236	52
0	5588	434.405385052187	53
0	5589	434.514082941522	52
0	5592	434.626374619651	51
0	5595	434.847602985621	52
0	5596	434.999227986608	53
0	5598	435.243547431226	52
0	5601	435.437717256183	53
0	5602	435.520071225111	52
0	5604	435.578646400773	51
0	5606	435.650393839429	52
0	5609	436.102421212385	53
0	5611	436.311511059864	54
0	5613	436.414662861414	55
0	5614	436.639748787995	54
0	5616	436.649703959776	55
0	5617	436.671906607872	54
0	5619	436.708494639307	53
0	5622	436.994269159483	52
0	5625	437.212633761875	51
0	5627	437.224978921565	50
0	5630	437.253869429133	51
0	5632	437.432866439748	50
0	5636	437.50181406956	51
0	5637	437.548691280331	52
0	5638	437.551828083847	51
0	5640	437.655142925469	50
0	5643	437.708423597088	51
0	5644	437.765173203486	52
0	5645	437.773844316223	53
0	5646	437.958788398886	54
0	5649	438.272845747713	53
0	5651	438.338314493056	54
0	5653	438.520751949386	55
0	5654	438.701644138993	56
0	5656	438.721831549746	55
0	5660	438.920184204702	54
0	5662	439.00291839975	55
0	5663	439.012310734386	54
0	5665	439.053658705447	55
0	5667	439.174660322019	56
0	5669	439.438773082817	57
0	5670	439.522477943096	56
0	5672	439.608046758395	57
0	5673	440.187963431395	56
0	5675	440.236733305054	55
0	5677	440.492955641164	54
0	5679	440.578786569933	53
0	5686	441.026550431526	54
0	5687	441.061238768948	55
0	5688	441.104444679906	56
0	5690	441.222756830783	57
0	5691	441.281944673213	58
0	5694	441.453185216626	59
0	5695	441.468389798439	58
0	5698	441.501894278165	57
0	5700	441.634694333724	58
0	5702	441.649960702502	59
0	5703	441.77838782003	58
0	5705	441.786475200097	59
0	5708	441.946554974327	60
0	5709	441.994777690611	59
0	5711	442.046911364961	58
0	5713	442.210530161468	59
0	5714	442.227696350948	60
0	5716	442.717057653853	61
0	5717	442.888449916902	60
0	5719	443.127957836521	59
0	5721	443.185636627127	58
0	5723	443.423988766218	57
0	5726	443.792160654847	58
0	5728	444.77567385465	59
0	5730	445.113391506384	60
0	5731	445.313741407715	59
0	5733	445.420486120067	58
0	5735	445.504791156597	57
0	5737	445.608965614074	56
0	5739	446.031899808265	55
0	5741	446.280385131541	54
0	5743	446.359882839844	53
0	5745	446.447865498724	52
0	5749	446.780828958596	53
0	5750	446.839576560661	54
0	5752	447.5330267782	53
0	5754	447.759399230952	52
0	5756	447.790871712248	53
0	5759	448.648710497229	54
0	5760	448.649992159373	55
0	5761	448.69553642442	54
0	5765	449.047805641946	53
0	5767	449.267140349597	54
0	5768	449.306781234317	53
0	5770	449.322994524251	54
0	5772	449.428198269788	53
0	5774	449.655696121555	54
0	5777	450.73088311925	55
0	5778	450.860443572471	56
0	5781	451.180875457266	57
0	5782	451.28895477701	58
0	5784	451.346641395332	57
0	5786	451.392277591766	56
0	5788	451.626269175338	57
0	5789	451.927249704606	56
0	5791	452.079342769736	55
0	5797	452.444561217216	56
0	5798	452.469032505228	57
0	5799	452.504602600591	58
0	5800	452.667392364139	59
0	5801	452.718571321191	58
0	5803	452.740914108777	57
0	5806	453.041807485195	58
0	5807	453.065814895887	57
0	5809	453.148474365299	56
0	5815	453.466950038849	57
0	5816	453.482956014381	58
0	5817	453.536564803928	59
0	5818	453.623381644021	60
0	5819	453.638928137474	59
0	5821	453.688922934218	58
0	5824	453.884553765213	57
0	5828	454.026138884024	58
0	5829	454.15923193257	57
0	5832	454.271194208182	58
0	5833	454.290546839321	59
0	5834	454.506125015958	58
0	5836	454.563566275438	59
0	5837	454.63511862087	58
0	5839	454.700191332536	57
0	5841	454.798566575891	56
0	5844	455.109233896738	57
0	5846	455.434679150128	58
0	5849	455.853153313046	59
0	5851	455.998438615496	58
0	5853	456.129817516446	59
0	5854	456.156446898689	60
0	5857	456.463410411181	61
0	5858	456.664938994191	62
0	5859	456.786835519051	61
0	5861	456.903216246287	60
0	5863	456.927002987057	59
0	5865	456.956054583777	58
0	5867	457.084887726837	57
0	5870	457.420706855304	56
0	5872	457.451711763135	57
0	5874	457.701702519681	56
0	5876	457.836851773533	57
0	5880	458.182955664695	58
0	5881	458.188926787832	59
0	5882	458.280691018059	60
0	5886	458.587025396792	61
0	5888	458.647637284578	62
0	5889	458.653849122086	63
0	5890	458.94490824705	64
0	5891	459.299696004932	63
0	5894	459.559692097836	62
0	5896	459.66641416794	61
0	5899	459.724682524469	62
0	5900	459.783346174399	61
0	5904	460.010736532464	60
0	5906	460.021761143331	61
0	5907	460.185206765804	62
0	5908	460.220885842356	61
0	5911	460.283580525191	62
0	5913	460.550795188137	63
0	5915	460.707049944286	62
0	5917	460.803300567384	61
0	5919	460.842378025651	62
0	5920	460.891057164529	63
0	5922	461.245927518851	64
0	5923	461.411819874114	63
0	5925	461.467846671688	62
0	5928	461.776398231482	63
0	5930	462.013371461793	62
0	5933	462.286708259165	63
0	5934	462.340750626106	64
0	5938	462.714086749588	65
0	5939	462.745708760997	66
0	5940	462.891636318	65
0	5942	462.923056812106	66
0	5943	462.9497384231	65
0	5947	463.263153041854	66
0	5948	463.430578689541	65
0	5950	463.50591105891	66
0	5951	463.508311087867	65
0	5954	463.576830725018	64
0	5957	463.773028787845	63
0	5959	463.777526437096	62
0	5961	463.87389171784	63
0	5962	463.937627232619	62
0	5965	464.00386904808	61
0	5967	464.022829450799	62
0	5968	464.299813919182	63
0	5972	464.908807767503	64
0	5974	464.93243838871	65
0	5975	465.05424955191	66
0	5976	465.215688380614	67
0	5977	465.264601476216	66
0	5979	465.299472604984	65
0	5981	465.497765828559	64
0	5983	465.600442441791	63
0	5985	466.064291343709	62
0	5989	466.321661786901	61
0	5991	466.3359269689	60
0	5993	466.338774593647	59
0	5996	466.483661382822	60
0	5997	466.581041114526	61
0	5998	466.693651673786	62
0	5999	466.814656287233	61
0	6002	466.870193339886	60
0	6004	467.131308338694	61
0	6005	467.205298017771	60
0	6007	467.371848342671	59
0	6011	467.55709293527	58
0	6014	467.685195657682	59
0	6015	467.710312117829	58
0	6017	467.78571309463	57
0	6019	467.837071751749	56
0	6021	467.84440499335	57
0	6022	467.911715801673	58
0	6024	468.292423740137	59
0	6025	468.345106885278	58
0	6029	468.748647789326	57
0	6031	468.779316009325	58
0	6032	468.827792858937	59
0	6034	469.168001761113	58
0	6036	469.171648691824	59
0	6037	469.185071837186	58
0	6039	469.397524694235	57
0	6043	469.769342689868	58
0	6046	469.995600092344	59
0	6047	470.154000242223	60
0	6048	470.283277654867	59
0	6050	470.284040649419	60
0	6051	470.337443928572	59
0	6054	470.520124142137	58
0	6056	470.58262342107	57
0	6058	470.625532034679	56
0	6060	470.713366495227	57
0	6061	470.885603937436	56
0	6065	471.952275015379	57
0	6068	472.20971809937	58
0	6069	472.254347456666	59
0	6070	472.359807191138	58
0	6072	472.432095745598	59
[...]
0	46789	3494.925877034877	257
0	46792	3495.099504889013	256
0	46794	3495.150115425777	257
0	46796	3495.292815677604	258
0	46797	3495.357623613335	259
0	46798	3495.399705293498	258
0	46800	3495.49244730131	259
0	46801	3495.545501453838	258
0	46805	3495.844293758582	257
0	46808	3495.994988820452	258
0	46809	3496.030857679148	257
0	46811	3496.066780995521	258
0	46812	3496.172060264213	259
0	46814	3496.395733022858	258
0	46817	3496.455285401465	257
0	46819	3496.618817243976	258
0	46820	3496.676237626414	257
0	46822	3496.694425865495	256
0	46824	3496.711868132149	257
0	46825	3496.741171184052	256
0	46828	3496.945302932159	255
0	46830	3497.107240835923	256
0	46831	3497.166167605809	255
0	46834	3498.121702500654	254
0	46836	3498.145142462386	255
0	46837	3498.260905739011	254
0	46839	3498.534445192285	253
0	46841	3498.563282159158	252
0	46843	3498.945853501992	251
0	46846	3499.561017697031	252
0	46847	3500.105491239406	251
0	46851	3500.35703567817	250
0	46856	3500.512179892761	251
0	46857	3500.538158391203	250
0	46859	3500.616022856433	251
0	46860	3500.665671191435	250
0	46862	3500.746828574138	251
0	46863	3500.781076646239	252
0	46864	3500.808577606048	253
0	46865	3500.895826075084	252
0	46868	3501.277948219652	253
0	46869	3501.676710633846	252
0	46871	3501.883750722121	251
0	46875	3502.333331455729	252
0	46879	3502.513978518994	251
0	46881	3502.617657220747	252
0	46882	3502.641014307322	253
0	46883	3502.655858998697	254
0	46884	3502.757283041016	255
0	46885	3503.016354270679	254
0	46887	3503.140398023627	253
0	46889	3503.193999207549	252
0	46891	3503.325885746345	251
0	46893	3503.498826917057	250
0	46897	3504.04031026419	251
0	46898	3504.092131527269	252
0	46899	3504.161080737502	251
0	46902	3504.449434629367	250
0	46904	3504.589772245251	251
0	46906	3504.927616694553	252
0	46909	3505.552249816546	251
0	46911	3505.663378509243	252
0	46912	3505.683384378643	251
0	46915	3505.743280603487	252
0	46916	3505.782194550865	251
0	46919	3506.032516648605	252
0	46920	3506.296680373599	253
0	46923	3506.60161053119	254
0	46924	3506.760466827366	255
0	46928	3507.277335922229	256
0	46929	3507.287404604765	257
0	46930	3507.293171002792	258
0	46934	3507.833063924149	259
0	46935	3507.951728473713	260
0	46936	3507.986113279678	261
0	46940	3508.316103399898	260
0	46942	3508.339610248737	259
0	46945	3508.411022286328	258
0	46947	3508.470006619162	259
0	46948	3508.533567827697	260
0	46949	3508.560330822004	261
0	46951	3508.663829654333	260
0	46953	3508.696186232478	261
0	46954	3508.807390634063	260
0	46956	3508.878468079352	261
0	46957	3508.897817112239	260
0	46960	3508.924387846543	259
0	46964	3508.990255365756	258
0	46966	3509.203786815737	259
0	46967	3509.247226489823	260
0	46968	3509.26653847026	261
0	46970	3509.713070748701	260
0	46973	3509.837484158564	261
0	46974	3509.904620398892	260
0	46978	3510.050960041476	259
0	46980	3510.071409635863	260
0	46981	3510.216613997715	261
0	46983	3510.274047592118	262
0	46984	3510.484518423378	261
0	46986	3510.562700880892	262
0	46989	3510.637420475657	261
0	46991	3510.895026903275	262
0	46992	3510.897067936138	263
0	46994	3511.050447666595	262
0	46996	3511.210688152924	263
0	46997	3511.284887664614	262
0	46999	3511.422435611746	261
0	47001	3511.519383767531	260
0	47003	3511.721572248647	259
0	47007	3512.202378204847	258
0	47010	3512.386912341394	259
0	47011	3512.401492364093	260
0	47014	3512.668460771385	261
0	47017	3512.785202201778	260
0	47020	3512.826176793845	259
0	47022	3512.848472815835	260
0	47023	3512.905664086554	261
0	47024	3512.988925947436	262
0	47025	3513.030698654953	263
0	47026	3513.114219279248	264
0	47028	3513.148006810138	263
0	47030	3513.210791890738	262
0	47035	3513.431563436314	263
0	47039	3513.515460626684	264
0	47040	3513.587617012345	265
0	47041	3513.622657803402	264
0	47043	3513.652854325072	263
0	47045	3513.728317384063	264
0	47046	3513.746851290973	265
0	47047	3513.759015168618	266
0	47048	3513.774834638529	265
0	47050	3513.800543176236	266
0	47052	3514.118269478298	265
0	47054	3514.124418114145	264
0	47057	3514.330211477042	265
0	47059	3514.597194788301	266
0	47061	3514.72037434949	267
0	47062	3514.722352964029	266
0	47064	3514.908916436115	265
0	47066	3514.931812891336	266
0	47070	3515.407761668879	267
0	47072	3515.5062041718	266
0	47074	3515.59814734701	267
0	47075	3515.648276190677	268
0	47076	3515.679908825523	267
0	47078	3515.748285776822	266
0	47080	3515.785003411894	267
0	47081	3516.148930327762	266
0	47083	3516.284084566408	265
0	47085	3516.320708885897	264
0	47087	3516.385139756624	263
0	47089	3516.489339293588	262
0	47091	3516.673848989577	261
0	47093	3516.683565720013	260
0	47096	3517.096019619584	261
0	47097	3517.30589986424	260
0	47100	3517.511691967584	259
0	47105	3517.703683721671	260
0	47106	3517.8715519255	261
0	47107	3517.91530300076	262
0	47108	3517.974420028537	263
0	47111	3518.339062802577	264
0	47112	3518.459980420823	263
0	47114	3518.497669167898	262
0	47116	3518.595390201535	263
0	47117	3518.748534388722	262
0	47120	3519.03896770735	261
0	47122	3519.095521292966	260
0	47124	3519.174054409381	261
0	47126	3519.498486776784	262
0	47127	3519.613303767682	261
0	47129	3519.643099250113	260
0	47131	3519.739898920212	259
0	47135	3520.064902162504	258
0	47138	3520.219938867409	259
0	47139	3520.35154982603	260
0	47140	3520.426872180305	259
0	47142	3520.43326663659	258
0	47144	3520.486335423207	259
0	47146	3520.692560764359	258
0	47148	3520.735570223985	257
0	47152	3520.823838018122	258
0	47154	3520.836808793529	257
0	47156	3520.8418805672	256
0	47159	3521.071597775782	257
0	47160	3521.073886795935	258
0	47161	3521.128406708934	259
0	47162	3521.332459701085	260
0	47163	3521.44120639312	259
0	47165	3521.567705520275	258
0	47167	3521.941048837075	257
0	47169	3521.962529094977	256
0	47173	3522.244816002168	255
0	47175	3522.322088917114	256
0	47176	3522.328998566156	255
0	47178	3522.52287703554	256
0	47179	3522.8571056841	255
0	47183	3523.178654238235	256
0	47184	3523.42323456146	257
0	47185	3523.623704930593	256
0	47187	3523.680029275795	255
0	47189	3523.926775994077	254
0	47192	3523.994553339699	253
0	47196	3524.233430931919	254
0	47197	3524.332208483128	255
0	47199	3524.466045222862	254
0	47201	3524.516954644328	255
0	47203	3524.555622824812	254
0	47206	3524.642909032632	255
0	47208	3524.757051513786	254
0	47210	3524.76174214236	253
0	47214	3524.82289993964	254
0	47215	3524.934102851469	255
0	47216	3524.943515341433	256
0	47218	3525.076211464469	257
0	47219	3525.086636120551	258
0	47220	3525.217524655537	257
0	47222	3525.300395767516	258
0	47227	3526.213766923187	259
0	47229	3526.353010532671	260
0	47230	3526.394458046941	259
0	47232	3526.414763201994	258
0	47234	3526.421250168144	259
0	47235	3526.458718861412	260
0	47236	3526.5958900259	261
0	47240	3526.962707796993	262
0	47241	3526.996047352595	263
0	47242	3527.056725359658	264
0	47243	3527.525821525798	263
0	47246	3527.620493498952	262
0	47249	3527.857304499843	261
0	47251	3527.892506269798	262
0	47252	3528.079311398002	263
0	47253	3528.126432167184	262
0	47255	3528.347178141444	261
0	47257	3528.582076340369	260
0	47261	3528.898545289644	261
0	47262	3529.002033760895	262
0	47264	3529.265664662988	261
0	47267	3529.361400510006	260
0	47269	3529.503864654453	261
0	47270	3529.62826446458	262
0	47272	3530.087375118783	261
0	47274	3530.194446699785	262
0	47275	3530.364463488442	261
0	47278	3531.248405091165	260
0	47281	3531.423446665866	261
0	47283	3531.562083607662	260
0	47285	3531.578542042082	259
0	47288	3531.655686232671	260
0	47291	3531.772872335114	261
0	47292	3531.778143487499	260
0	47295	3531.922505161063	261
0	47296	3531.98705540213	262
0	47297	3532.005532721184	263
0	47298	3532.087978134759	264
0	47299	3532.120139578038	263
0	47302	3532.304005486546	262
0	47304	3532.31229642116	261
0	47306	3532.447996329523	262
0	47307	3532.944319748013	261
0	47309	3533.01518293246	260
0	47311	3533.285501501017	259
0	47315	3533.447610647644	258
0	47317	3533.513238602026	257
0	47320	3533.652414289558	258
0	47321	3533.684149317506	259
0	47322	3533.843845710727	260
0	47325	3534.602125721588	261
0	47326	3534.740347021475	260
0	47328	3534.772246250673	259
0	47330	3534.89442384638	260
0	47333	3535.238500999787	259
0	47335	3535.276301143157	260
0	47336	3535.302570609785	261
0	47338	3535.641154406872	260
0	47340	3535.652235907875	259
0	47342	3535.660893293499	258
0	47344	3535.703834691114	259
0	47346	3536.104213541432	258
0	47348	3536.109499630621	259
0	47349	3536.131455623	258
0	47352	3536.195013569909	257
0	47356	3536.432513201972	258
0	47357	3536.481083583538	257
0	47359	3536.539703384547	256
0	47361	3536.556129222891	257
0	47362	3536.585133762084	258
0	47364	3536.786241425527	257
0	47366	3536.930858410286	258
0	47369	3537.235008021632	259
0	47370	3537.265268048898	260
0	47372	3537.570287628667	261
0	47373	3537.619654094293	260
0	47375	3537.925050823039	259
0	47378	3538.741641015184	258
0	47382	3538.968153482357	257
0	47384	3539.009442865826	258
0	47385	3539.059016609891	259
0	47386	3539.061332642777	260
0	47387	3539.790451471254	259
0	47389	3539.870799817296	258
0	47392	3539.935605993701	257
0	47394	3539.971220564183	256
0	47396	3539.98136367947	255
0	47399	3540.182640917108	256
0	47400	3540.289883631917	255
0	47402	3540.413112356144	256
0	47403	3540.448424164874	255
0	47405	3540.507047298767	254
0	47407	3540.581223532207	253
0	47409	3540.661616890301	252
0	47412	3541.007859218568	253
0	47413	3541.1715472099	252
0	47416	3541.391071723115	251
0	47418	3541.56884042216	252
0	47419	3541.8073431295	251
0	47422	3541.996905121929	250
0	47425	3542.223406346959	251
0	47426	3542.407782673911	252
0	47427	3542.556902007457	251
0	47429	3542.788631522445	250
0	47434	3542.857035983397	249
0	47436	3542.970924613896	248
0	47438	3542.994744564218	247
0	47441	3543.128951696358	248
0	47442	3543.143383475866	249
0	47443	3543.146796936689	250
0	47444	3543.319548891277	251
0	47446	3543.519905861372	250
0	47448	3543.554721548085	249
0	47450	3543.62615033388	248
0	47452	3543.63888341461	249
0	47454	3543.989452062921	250
0	47456	3544.372504557413	249
0	47460	3544.590547838603	250
0	47461	3544.607768980587	249
0	47463	3544.716243288708	250
0	47464	3544.774227501228	251
0	47465	3544.804687642993	250
0	47468	3544.853491991915	249
0	47471	3545.148351008508	250
0	47472	3545.178144041921	249
0	47474	3545.296802697687	250
0	47476	3545.346865600977	249
0	47480	3545.620723658016	250
0	47483	3545.876693267025	251
0	47485	3545.912468572686	252
0	47486	3545.931801165523	253
0	47487	3546.151938802671	254
0	47488	3546.202049144635	255
0	47489	3546.547958354719	254
0	47492	3546.723890187552	253
0	47494	3546.758471380913	252
0	47496	3546.869691340533	253
0	47497	3546.878537702238	252
0	47499	3547.359250612061	251
0	47503	3547.888949132369	252
0	47504	3548.157869494925	253
0	47505	3548.167584361347	252
0	47508	3548.558479795387	253
0	47509	3548.58569616219	252
0	47511	3548.721208384169	251
0	47513	3548.934254562309	250
0	47516	3549.318581718338	251
0	47517	3549.431658975146	250
0	47520	3549.673474609446	249
0	47525	3549.939420355195	250
0	47526	3549.987572788584	251
0	47528	3550.099351247056	252
0	47530	3550.173419660209	253
0	47531	3550.242648775316	252
0	47533	3550.261994013427	251
0	47535	3550.393685391332	252
0	47536	3550.428864322671	253
0	47537	3550.756643391877	252
0	47541	3551.215015866081	253
0	47544	3551.398022338616	254
0	47545	3551.542752816756	253
0	47547	3551.592695433088	254
0	47549	3551.695990541362	255
0	47550	3551.857113943053	254
0	47552	3551.86217807596	253
0	47554	3551.964868075406	254
0	47555	3552.008832859081	253
0	47558	3552.511408199722	254
0	47561	3553.314356833118	255
0	47563	3553.559784475208	256
0	47564	3553.76935446046	257
0	47565	3553.891948885224	256
0	47567	3553.921324449542	255
0	47569	3553.978018971741	254
0	47572	3554.295844325291	253
0	47574	3554.500759085304	254
0	47575	3554.864988861758	253
0	47578	3555.222935979542	252
0	47580	3555.281933795321	253
0	47581	3555.612216703694	252
0	47583	3555.7580161609	251
0	47585	3556.270203415145	250
0	47590	3556.673228638072	249
0	47592	3556.683923008519	250
0	47593	3556.85698917061	251
0	47595	3556.953306432278	252
0	47597	3557.169764669049	253
0	47598	3557.37995019378	254
0	47600	3557.73612085395	253
0	47602	3557.820750611347	252
0	47604	3557.851512936722	251
0	47606	3557.873635624373	252
0	47609	3558.306059963179	251
0	47613	3558.426123451494	250
0	47615	3558.429947774042	251
0	47616	3558.501780007787	252
0	47618	3558.615224604297	253
0	47619	3558.672706487076	254
0	47620	3558.784689282821	253
0	47623	3558.915052966547	254
0	47624	3558.932186759892	253
0	47627	3559.095113232503	254
0	47629	3559.333312714843	255
0	47630	3559.444087092885	256
0	47631	3559.486403412786	255
0	47633	3559.584341880345	254
0	47635	3559.618290172508	253
0	47638	3560.13255690016	252
0	47640	3560.407513697761	253
0	47642	3560.605952018636	252
0	47644	3560.777159830107	253
0	47645	3560.929201891119	252
0	47649	3561.431151308435	251
0	47651	3561.494681002558	250
0	47653	3561.520936639756	251
0	47654	3561.569832953328	250
0	47656	3561.585768806662	251
0	47657	3561.907181004031	250
0	47659	3562.089660352312	249
0	47662	3562.530193353467	250
0	47663	3562.598165508956	249
0	47665	3562.701966336621	248
0	47667	3562.795687962306	247
0	47670	3563.000512532935	246
0	47674	3563.199405538054	247
0	47675	3563.362784588295	248
0	47677	3563.43176827166	249
0	47680	3563.682817216141	248
0	47682	3563.708561264816	249
0	47683	3563.864023451555	250
0	47684	3563.872112375561	249
0	47688	3563.963578420635	250
0	47689	3564.099699639049	249
0	47691	3564.259723063019	250
0	47692	3564.260552285807	251
0	47694	3564.590719415356	250
0	47697	3564.699007591431	251
0	47699	3564.862275793447	250
0	47702	3564.976612266529	251
0	47703	3565.035269334643	250
0	47705	3565.092554686205	251
0	47706	3565.224451042003	252
0	47707	3565.300940331251	251
0	47710	3565.572698956924	250
0	47715	3565.829000246917	251
0	47716	3565.833486861317	250
0	47719	3565.95099063051	251
0	47720	3565.97033293697	252
0	47721	3566.124762800705	253
0	47722	3566.153777010685	254
0	47724	3566.74025321748	255
0	47725	3567.044211662044	254
0	47728	3567.157688617977	253
0	47731	3567.207289996568	252
0	47734	3567.44349448501	253
0	47735	3567.499289335431	254
0	47736	3567.541531643276	253
0	47738	3567.591541901183	254
0	47739	3567.811050892829	253
0	47741	3568.749826882789	252
0	47746	3569.520970181018	253
0	47747	3569.542506387599	252
0	47749	3569.56231223869	253
0	47750	3569.630879418666	254
0	47753	3570.022923785161	255
0	47754	3570.105761149866	254
0	47756	3570.116231208573	255
0	47757	3570.225830329959	254
0	47759	3570.235168999664	253
0	47761	3570.568229136356	252
0	47765	3570.929884240737	253
0	47768	3571.221757794714	254
0	47771	3571.411465736814	255
0	47772	3571.441556765763	254
0	47774	3571.493282286737	255
0	47775	3571.506552552609	254
0	47777	3571.592613046841	255
0	47778	3571.614905979197	256
0	47779	3571.687156667824	255
0	47782	3571.941027792396	254
0	47785	3572.017630281209	255
0	47787	3572.141034603216	254
0	47790	3572.258687003412	255
0	47791	3572.330808707571	254
0	47793	3572.395050324526	255
0	47795	3572.464166841752	256
0	47796	3572.501905862269	255
0	47799	3572.707891947592	256
0	47800	3572.847156940365	257
0	47802	3573.388120762165	256
0	47807	3573.570951716344	257
0	47809	3573.688525838162	258
0	47810	3573.72650224929	259
0	47811	3573.837446916772	260
0	47812	3573.906815705945	261
0	47813	3574.235177205972	260
0	47815	3574.624603331589	259
0	47818	3574.6864097127	258
0	47821	3574.910511731313	257
0	47823	3574.948586199998	258
0	47824	3574.955309936912	257
0	47827	3575.183459042453	256
0	47829	3575.197602042763	257
0	47831	3575.362319529451	258
0	47832	3575.380400518215	257
0	47834	3575.520085135368	258
0	47836	3575.849723169637	257
0	47838	3575.859217207736	258
0	47840	3575.985713447887	257
0	47842	3576.171944593541	256
0	47844	3576.227967706627	257
0	47845	3576.344029291869	256
0	47850	3576.417042604065	255
0	47853	3576.696847260717	256
0	47854	3576.706738782814	257
0	47855	3576.709093451332	258
0	47856	3576.969049533094	259
0	47857	3577.118931069814	258
0	47860	3577.289988154274	257
0	47862	3577.326211731232	256
0	47864	3577.506341556152	257
0	47867	3578.061339159789	256
0	47869	3578.074390672336	257
0	47871	3578.18643086894	256
0	47873	3578.20891484489	257
0	47876	3578.389260131978	258
0	47877	3578.468914958742	257
0	47879	3578.551393186483	258
0	47880	3578.595160936324	257
0	47882	3578.605496866252	258
0	47884	3579.010487631316	257
0	47888	3579.22502209171	258
0	47889	3579.240812581063	257
0	47891	3579.369870837668	258
0	47892	3579.471043186224	259
0	47894	3579.593616808916	258
0	47896	3579.797831717973	259
0	47897	3579.79994765354	258
0	47899	3579.842724470801	257
0	47902	3580.164461658889	256
0	47904	3580.205741662193	255
0	47907	3580.414128158261	254
0	47909	3580.463727753317	255
0	47911	3580.524592773238	254
0	47913	3580.546155171925	255
0	47915	3580.680041683585	254
0	47919	3580.824094476301	255
0	47920	3580.910911264489	254
0	47922	3580.910998936582	255
0	47923	3580.928181790083	254
0	47925	3581.022046031297	255
0	47926	3581.026875731134	256
0	47928	3581.452848410371	255
0	47930	3581.463098240368	254
0	47932	3581.472165138904	253
0	47934	3581.613433456998	254
0	47935	3581.717675876152	253
0	47937	3581.981684096279	252
0	47942	3582.161387337963	251
0	47945	3582.284245882618	252
0	47946	3582.348877819023	253
0	47947	3582.376412400538	254
0	47948	3582.459430050575	253
0	47950	3582.463142900444	252
0	47952	3582.463577027442	253
0	47953	3582.519963140124	252
0	47957	3582.749783571869	251
0	47959	3582.792574462989	250
0	47961	3582.888236465337	251
0	47962	3583.043409584883	252
0	47963	3583.087856905789	251
0	47967	3583.284884722459	250
0	47969	3583.304782647029	249
0	47971	3583.320489157243	248
0	47975	3583.501688954213	249
0	47977	3583.558201811215	250
0	47978	3583.561267612634	249
0	47980	3583.758732873823	250
0	47981	3583.793016050789	251
0	47982	3583.842497968828	252
0	47983	3584.324781047166	251
0	47985	3584.332082440621	250
0	47987	3585.243478700436	249
0	47990	3585.597294202318	248
0	47992	3585.616093875864	249
0	47993	3585.980098033937	248
0	47995	3585.989686072915	247
0	47998	3586.622283113596	248
0	47999	3587.331530721046	247
0	48002	3587.853413160791	246
0	48004	3587.950489487081	247
0	48006	3588.412664633335	248
0	48009	3588.550735103486	247
0	48011	3588.719118185412	248
0	48012	3588.801873739932	249
0	48016	3589.305731717634	250
0	48017	3589.442427196133	251
0	48018	3589.498751339056	252
0	48020	3590.419315831936	253
0	48021	3590.430333603286	252
0	48023	3590.477270094342	251
0	48026	3590.87541810687	250
0	48030	3591.082810013024	251
0	48032	3591.256681021838	252
0	48033	3591.269189053787	253
0	48034	3591.395379541858	254
0	48035	3591.761335682766	253
0	48038	3591.927456577228	252
0	48040	3592.099976095441	251
0	48042	3592.115345161979	250
0	48044	3592.132987421542	251
0	48046	3592.428620421566	250
0	48048	3592.473972434635	251
0	48049	3592.848974759057	250
0	48051	3593.088608057845	249
0	48055	3593.474569374212	250
0	48056	3593.508424169005	251
0	48057	3593.779483070532	250
0	48060	3594.038535640174	249
0	48062	3594.201430709132	250
0	48066	3594.49545689982	249
0	48068	3594.59527310348	250
0	48069	3594.732878384937	251
0	48070	3594.744096853057	252
0	48074	3595.14702092671	253
0	48076	3595.305156494196	254
0	48077	3595.426837072947	255
0	48078	3595.487377945382	256
0	48079	3595.566227209991	255
0	48081	3595.589163340771	254
0	48084	3595.99555313731	255
0	48087	3596.3098269045	256
0	48090	3596.527187997442	257
0	48092	3596.687346245352	256
0	48094	3596.729030990953	257
0	48095	3596.779865266076	258
0	48096	3596.854756720124	259
0	48099	3597.349529336693	260
0	48100	3597.442370463221	261
0	48101	3597.510338262369	260
0	48103	3597.529952950816	259
0	48105	3597.648495791955	258
0	48107	3598.010125439594	257
0	48109	3598.087380090759	256
0	48111	3598.711287262108	255
0	48113	3598.764152870436	254
0	48115	3598.941878891363	253
0	48117	3599.014463936967	252
0	48120	3599.519936631745	253
0	48122	3599.738783528015	252
0	48125	3599.89722900518	253

